THERMO ALL
 300.000  1000.000  5000.000
CH2CH2OCHO  2/11/13THERMC   3H   5O   2    0G   298.000  5000.000 1390.000     1
 1.24984510E+01 1.30935251E-02-4.62331281E-06 7.28606926E-10-4.26054604E-14    2
-2.86100440E+04-3.78232191E+01-6.78732672E-01 4.51606055E-02-3.50210298E-05    3
 1.40694937E-08-2.31774750E-12-2.41492605E+04 3.25137455E+01                   4
C4H71-3OH               C   4H   8O   1    0G   300.000  5000.000 1385.000    31
+1.42401634E+01+1.83038695E-02-6.37213444E-06+1.00099740E-09-5.85511411E-14    2
-2.68183960E+04-4.83949774E+01+7.16707858E-02+5.04772909E-02-3.50356983E-05    3
+1.30539199E-08-2.07783174E-12-2.16983717E+04+2.82072724E+01+0.00000000E+00    4
C2H5OCO    2/11/13 THERMC   3H   5O   2    0G   298.000  5000.000 1390.000     1
 1.16390485E+01 1.32155881E-02-4.53438965E-06 7.02519847E-10-4.06240091E-14    2
-2.94114357E+04-3.33934054E+01 8.74866852E-01 3.89563654E-02-2.84941457E-05    3
 1.10427791E-08-1.77992089E-12-2.57122476E+04 2.42407922E+01                   4
CH3CHOCHO  2/11/13 THERMC   3H   5O   2    0G   298.000  5000.000 1391.000     1
 1.34529814E+01 1.16052597E-02-4.06188517E-06 6.50967525E-10-3.87132071E-14    2
-2.97458483E+04-4.37684717E+01 8.86804446E-01 4.33029474E-02-3.52590280E-05    3
 1.48268243E-08-2.52707968E-12-2.56198194E+04 2.28838647E+01                   4
CH2CH2COOH 11/ 6/6 THERMC   3H   5O   2    0G   300.000  5000.000 1388.000     1
 1.21056515E+01 1.20072974E-02-4.01222836E-06 6.13736690E-10-3.52578096E-14    2 
-3.54010562E+04-3.45585393E+01 1.75255679E+00 3.81165028E-02-2.99750903E-05    3
 1.26429039E-08-2.19989962E-12-3.19707693E+04 2.04086169E+01                   4 
CH3CHCOOH 11/ 6/ 6 THERMC   3H   5O   2    0G   300.000  5000.000 1388.000     1
 1.34692958E+01 1.12428080E-02-3.83397867E-06 5.94697350E-10-3.45013097E-14    2 
-3.97483883E+04-4.43604754E+01 6.98389815E-01 4.44842534E-02-3.79447821E-05    3
 1.68319674E-08-3.01742851E-12-3.56313805E+04 2.30585761E+01                   4
CH3CHC(OH)2        THERMC   3H   6O   2    0G   300.000  5000.000 1406.000     1
 1.32976764E+01 1.29408561E-02-4.28928683E-06 6.51871619E-10-3.72585955E-14    2
-4.78312768E+04-4.37083054E+01 2.15350420E-01 4.94316838E-02-4.39398464E-05    3
 2.02851230E-08-3.72472846E-12-4.38993349E+04 2.44170005E+01                   4
O2CH2OCH2O2H 2/12/14 ERMC   2H   5O   5    0G   300.000  5000.000 1433.000    31
+1.77378326E+01+1.13589899E-02-3.67382539E-06+5.49255712E-10-3.10405899E-14    2
-3.82903058E+04-5.66609932E+01+2.39977678E+00+5.39881943E-02-4.87969524E-05    3
+2.19792134E-08-3.86106979E-12-3.37824638E+04+2.30683371E+01+0.00000000E+00    4
HOOCH2OCHO 2/12/14 THERMC   2H   4O   4    0G   300.000  5000.000 1386.000    31
+1.57136128E+01+9.64430166E-03-3.44136025E-06+5.49722196E-10-3.25360322E-14    2
-6.29409094E+04-5.29505242E+01+1.21909586E+00+4.28858235E-02-3.17634222E-05    3
+1.11542676E-08-1.49753153E-12-5.79287926E+04+2.49759193E+01+0.00000000E+00    4
OCH2OCHO   5/29/14 THERMC   2H   3O   3    0G   300.000  5000.000 1523.000    21
+1.24013200E+01+7.83738243E-03-2.82992688E-06+4.55558739E-10-2.71061389E-14    2
-4.68453470E+04-3.78084549E+01+1.89539692E+00+2.74118545E-02-1.36476090E-05    3
+1.26325603E-09+5.17970476E-13-4.27879440E+04+2.02333278E+01+0.00000000E+00    4
HOCH2OCO   5/29/14 THERMC   2H   3O   3    0G   300.000  5000.000 1443.000    11
+1.11498410E+01+9.34736520E-03-3.35541548E-06+5.38037115E-10-3.19260183E-14    2
-4.75012119E+04-2.95983867E+01+5.95255071E+00+8.42196282E-03+1.36741678E-05    3
-1.46786275E-08+3.84143533E-12-4.44470269E+04+2.85657217E+00+0.00000000E+00    4
C3H2 HCCCH(T)            H  2 C  3 O  0     G     298.0    3000.0    1000.0    1
 7.06992917E+00 5.39308160E-03-2.17231495E-06 4.25227595E-10-3.28500977E-14    2
 6.34378880E+04-9.64827316E+00 6.45665171E+00 8.89254866E-03-8.95504077E-06    3
 5.94559895E-09-1.65668523E-12 6.35070148E+04-6.95417172E+00                   4

!C3H2                   0C   3H   2         0G   200.000  5000.000 1200.00      1
! 0.74834414E+01 0.44503606E-02-0.15002907E-05 0.23249081E-09-0.13529506E-13    2
! 0.63416556E+05-0.11783241E+02 0.63725955E+01 0.86583412E-02-0.73917174E-05    3
! 0.38563118E-08-0.84157682E-12 0.63646788E+05-0.63730686E+01 6.58731756E+04    4
CH3C(O)OCH3 MetAc T10/07C  3.H  6.O  2.   0.G   200.000  6000.000  1000.00     1
 8.38776809E+00 1.90836514E-02-6.82197320E-06 1.09765423E-09-6.55561842E-14    2
-5.40805971E+04-1.64156253E+01 7.18744749E+00-6.29221513E-03 8.17059377E-05    3
-9.82940778E-08 3.73744521E-11-5.23417155E+04-3.24161798E+00-4.99331833E+04    4
CH2C(O)OCH3 MeAcR T10/07C  3.H  5.O  2.   0.G   200.000  6000.000  1000.00     1
 1.02649450E+01 1.48203457E-02-5.31197051E-06 8.56531776E-10-5.12421924E-14    2
-3.12340796E+04-2.66045572E+01 3.51220985E+00 1.85582748E-02 2.64110567E-05    3
-4.93050675E-08 2.14021359E-11-2.86749272E+04 1.17994305E+01-2.66568964E+04    4
CH3C(O)OCH2 MEMJ        C  3.H  5.O  2.   0.G   300.000  5000.000 1392.000     1 
 1.02649450E+01 1.48203457E-02-5.31197051E-06 8.56531776E-10-5.12421924E-14    2
-3.12340796E+04-2.66045572E+01 3.51220985E+00 1.85582748E-02 2.64110567E-05    3
-4.93050675E-08 2.14021359E-11-2.86749272E+04 1.17994305E+01-2.66568964E+04    4
HE REF ELEMENT  g 5/97  HE 1.   0.   0.   0.G   200.000  6000.000  1000.00     1
 2.50000000E+00 0.00000000E+00 0.00000000E+00 0.00000000E+00 0.00000000E+00    2
-7.45375000E+02 9.28723974E-01 2.50000000E+00 0.00000000E+00 0.00000000E+00    3
 0.00000000E+00 0.00000000E+00-7.45375000E+02 9.28723974E-01 0.00000000E+00    4
H                 L 6/94H   10   00   00   0G   200.000  6000.00  1000.0       1
 0.25000000E+01 0.00000000E+00 0.00000000E+00 0.00000000E+00 0.00000000E+00    2
 0.25473660E+05-0.44668285E+00 0.25000000E+01 0.00000000E+00 0.00000000E+00    3
 0.00000000E+00 0.00000000E+00 0.25473660E+05-0.44668285E+00 0.26219035E+05    4
H2  REF ELEMENT   tpis78H   20   00   00   0G   200.000  6000.00  1000.0       1
 2.93286575E+00 8.26608026E-04-1.46402364E-07 1.54100414E-11-6.88804800E-16    2
-8.13065581E+02-1.02432865E+00 2.34433112E+00 7.98052075E-03-1.94781510E-05    3
 2.01572094E-08-7.37611761E-12-9.17935173E+02 6.83010238E-01 0.00000000E+00    4
O                 L 1/90O   10   00   00   0G   200.000  6000.00  1000.0       1
 2.54363697E+00-2.73162486E-05-4.19029520E-09 4.95481845E-12-4.79553694E-16    2
 2.92260120E+04 4.92229457E+00 3.16826710E+00-3.27931884E-03 6.64306396E-06    3
-6.12806624E-09 2.11265971E-12 2.91222592E+04 2.05193346E+00 2.99687009E+04    4
O2 REF ELEMENT    TPIS89O   20   00   00   0G   200.000  6000.00  1000.0       1
 3.66096065E+00 6.56365811E-04-1.41149627E-07 2.05797935E-11-1.29913436E-15    2
-1.21597718E+03 3.41536279E+00 3.78245636E+00-2.99673416E-03 9.84730201E-06    3
-9.68129509E-09 3.24372837E-12-1.06394356E+03 3.65767573E+00 0.00000000E+00    4
OH                      O   1H   10   00   0G   200.000  6000.00  1000.0       1
 2.83853033E+00 1.10741289E-03-2.94000209E-07 4.20698729E-11-2.42289890E-15    2
 3.69780808E+03 5.84494652E+00 3.99198424E+00-2.40106655E-03 4.61664033E-06    3
-3.87916306E-09 1.36319502E-12 3.36889836E+03-1.03998477E-01 4.48615380E+03    4
HO2               T 1/09H   1O   20   00   0G   200.000  6000.00  1000.0       1
 4.17228741E+00 1.88117627E-03-3.46277286E-07 1.94657549E-11 1.76256905E-16    2
 3.10206839E+01 2.95767672E+00 4.30179807E+00-4.74912097E-03 2.11582905E-05    3
-2.42763914E-08 9.29225225E-12 2.64018485E+02 3.71666220E+00 1.47886045E+03    4
! [_ AbsorptionCoefficients=" 2 300 2500 -1.40598E+00 5.14030E+03 -2.49209E+06 5.87875E+09 -2.33462E+12 3.28929E+14 0 " _]
H2O               L 5/89H   2O   10   00   0G   200.000  6000.00  1000.0       1
 0.26770389E+01 0.29731816E-02-0.77376889E-06 0.94433514E-10-0.42689991E-14    2
-0.29885894E+05 0.68825500E+01 0.41986352E+01-0.20364017E-02 0.65203416E-05    3
-0.54879269E-08 0.17719680E-11-0.30293726E+05-0.84900901E+00-0.29084817E+05    4
H2O2              L 2/93H   2O   20   00   0G   200.000  6000.00  1000.0       1
 4.57977305E+00 4.05326003E-03-1.29844730E-06 1.98211400E-10-1.13968792E-14    2
-1.80071775E+04 6.64970694E-01 4.31515149E+00-8.47390622E-04 1.76404323E-05    3
-2.26762944E-08 9.08950158E-12-1.77067437E+04 3.27373319E+00-1.63425145E+04    4
! [_ AbsorptionCoefficients=" 1 300 865 3.27986E+01 -3.76866E-01 1.65856E-03 -3.54524E-06 4.05558E-09 -2.41057E-12 5.88363E-16 " _]
! [_ AbsorptionCoefficients=" 1 865 2500 1.13098E+00 2.29354E-02 -5.10680E-05 4.58986E-08 -2.10603E-11 4.90586E-15 -4.61551E-19 " _]
CO                RUS 79C   1O   10   00   0G   200.000  6000.00  1000.0       1
 0.30484859E+01 0.13517281E-02-0.48579405E-06 0.78853644E-10-0.46980746E-14    2
-0.14266117E+05 0.60170977E+01 0.35795335E+01-0.61035369E-03 0.10168143E-05    3
 0.90700586E-09-0.90442449E-12-0.14344086E+05 0.35084093E+01-0.13293628E+05    4
! [_ AbsorptionCoefficients=" 1 300 860 -1.61017E+02 2.07661E+00 -1.00536E-02 2.58277E-05 -3.59098E-08 2.54860E-11 -7.25425E-15 " _]
! [_ AbsorptionCoefficients=" 1 860 2500 -8.16334E+00 2.72779E-01 -5.37382E-04 4.56021E-07 -2.01261E-10 4.54957E-14 -4.17609E-18 " _]
CO2               L 7/88C   1O   20   00   0G   200.000  6000.00  1000.0       1
 0.46365111E+01 0.27414569E-02-0.99589759E-06 0.16038666E-09-0.91619857E-14    2
-0.49024904E+05-0.19348955E+01 0.23568130E+01 0.89841299E-02-0.71220632E-05    3
 0.24573008E-08-0.14288548E-12-0.48371971E+05 0.99009035E+01-0.47328105E+05    4
HCO               T 5/03H   1C   1O   10   0G   200.000  6000.00  1000.0       1
 3.92001542E+00 2.52279324E-03-6.71004164E-07 1.05615948E-10-7.43798261E-15    2
 3.65342928E+03 3.58077056E+00 4.23754610E+00-3.32075257E-03 1.40030264E-05    3
-1.34239995E-08 4.37416208E-12 3.87241185E+03 3.30834869E+00 5.08749163E+03    4
CH3               IU0702C   1H   30   00   0G   200.000  6000.00  1000.0       1
 0.29781206E+01 0.57978520E-02-0.19755800E-05 0.30729790E-09-0.17917416E-13    2
 0.16509513E+05 0.47224799E+01 0.36571797E+01 0.21265979E-02 0.54583883E-05    3
-0.66181003E-08 0.24657074E-11 0.16422716E+05 0.16735354E+01 0.17643935E+05    4
! [_ AbsorptionCoefficients=" 1 300 645 9.34245E+01 -1.36727E+00 8.19456E-03 -2.49120E-05 4.11322E-08 -3.53140E-11 1.23840E-14 " _]
! [_ AbsorptionCoefficients=" 1 645 2500 -6.04867E+00 6.35149E-02 -1.29462E-04 1.17164E-07 -5.49038E-11 1.30767E-14 -1.25597E-18 " _]
CH4   ANHARMONIC  L 8/99C   1H   40   00   0G   200.000  6000.00  1000.0       1
 1.65326226E+00 1.00263099E-02-3.31661238E-06 5.36483138E-10-3.14696758E-14    2
-1.00095936E+04 9.90506283E+00 5.14911468E+00-1.36622009E-02 4.91453921E-05    3
-4.84246767E-08 1.66603441E-11-1.02465983E+04-4.63848842E+00-8.97226656E+03    4
C2H6      ETHANE  L 8/88C   2H   60   00   0G   200.000  6000.00  1000.0       1
 4.04666411E+00 1.53538802E-02-5.47039485E-06 8.77826544E-10-5.23167531E-14    2
-1.24473499E+04-9.68698313E-01 4.29142572E+00-5.50154901E-03 5.99438458E-05    3
-7.08466469E-08 2.68685836E-11-1.15222056E+04 2.66678994E+00-1.00849652E+04    4
CH2O              T 5/11H   2C   1O   10   0G   200.000  6000.00  1000.0       1
 3.16952665E+00 6.19320560E-03-2.25056366E-06 3.65975660E-10-2.20149458E-14    2
-1.45486831E+04 6.04207898E+00 4.79372312E+00-9.90833322E-03 3.73219990E-05    3
-3.79285237E-08 1.31772641E-11-1.43791953E+04 6.02798058E-01-1.31293365E+04    4
C2H5              IU1/07C   2H   5    0    0G   200.000  6000.00  1000.0       1
 4.32195633E+00 1.23930542E-02-4.39680960E-06 7.03519917E-10-4.18435239E-14    2
 1.21759475E+04 1.71103809E-01 4.24185905E+00-3.56905235E-03 4.82667202E-05    3
-5.85401009E-08 2.25804514E-11 1.29690344E+04 4.44703782E+00 1.43965189E+04    4
CH2      TRIPLET  IU3/03C   1H   2    0    0G   200.000  6000.00  1000.0       1
 3.14631886E+00 3.03671259E-03-9.96474439E-07 1.50483580E-10-8.57335515E-15    2
 4.60412605E+04 4.72341711E+00 3.71757846E+00 1.27391260E-03 2.17347251E-06    3
-3.48858500E-09 1.65208866E-12 4.58723866E+04 1.75297945E+00 4.70504920E+04    4
CH3O              IU1/03C   1H   3O   1    0G   200.000  6000.00  1000.0       1
 4.75779238E+00 7.44142474E-03-2.69705176E-06 4.38090504E-10-2.63537098E-14    2
 3.78111940E+02-1.96680028E+00 3.71180502E+00-2.80463306E-03 3.76550971E-05    3
-4.73072089E-08 1.86588420E-11 1.29569760E+03 6.57240864E+00 2.52571660E+03    4
! CH2OH <g> ATcT ver. 1.122, DHf298 = -16.75 ± 0.27 kJ/mol - fit FEB19
CH2OH            ATcT3E C   1H   3O   1    0G   200.00   6000.00  1000.00      1
 4.98595628E+00 6.05361465E-03-1.97085934E-06 3.04582818E-10-1.76392863E-14    2
-3.97251433E+03-1.25383492E+00 4.46103848E+00-9.52338643E-04 2.58530327E-05    3
-3.34857457E-08 1.34796683E-11-3.47112995E+03 3.35529203E+00-2.01480262E+03    4
!CH2OH  old        IU2/03C   1H   3O   1    0G   200.000  6000.00  1000.0       1
! 5.09314370E+00 5.94761260E-03-2.06497460E-06 3.23008173E-10-1.88125902E-14    2
!-4.03409640E+03-1.84691493E+00 4.47834367E+00-1.35070310E-03 2.78484980E-05    3
!-3.64869060E-08 1.47907450E-11-3.50072890E+03 3.30913500E+00-2.04462770E+03    4
CH                IU3/03C   1H   1    0    0G   200.000  6000.00  1000.0       1
 0.25209369E+01 0.17653639E-02-0.46147660E-06 0.59289675E-10-0.33474501E-14    2
 0.70946769E+05 0.74051829E+01 0.34897583E+01 0.32432160E-03-0.16899751E-05    3
 0.31628420E-08-0.14061803E-11 0.70612646E+05 0.20842841E+01 0.71658188E+05    4
CHX excited A2DEL EG4/09C  1.H   1.   0.   0G   200.000  6000.000 1000.0       1
 2.78220752E+00 1.47246754E-03-4.63436227E-07 7.32736021E-11-4.19705404E-15    2
 1.04547060E+05 5.17421018E+00 3.47250101E+00 4.26443626E-04-1.95181794E-06    3
 3.51755043E-09-1.60436174E-12 1.04334869E+05 1.44799533E+00 1.05378099E+05    4
C2H2              g 1/91C   2H   2    0    0G   200.000  6000.00  1000.0       1
 4.65878489E+00 4.88396667E-03-1.60828888E-06 2.46974544E-10-1.38605959E-14    2
 2.57594042E+04-3.99838194E+00 8.08679682E-01 2.33615762E-02-3.55172234E-05    3
 2.80152958E-08-8.50075165E-12 2.64289808E+04 1.39396761E+01 2.74459950E+04    4
C2H4    ETHYLENE  g 1/00C   2H   4    0    0G   200.000  6000.00  1000.0       1
 3.99182724E+00 1.04833908E-02-3.71721342E-06 5.94628366E-10-3.53630386E-14    2
 4.26865851E+03-2.69081762E-01 3.95920063E+00-7.57051373E-03 5.70989993E-05    3
-6.91588352E-08 2.69884190E-11 5.08977598E+03 4.09730213E+00 6.31426266E+03    4
C2H3              ATcT/AC   2H   3    0    0G   200.000  6000.00  1000.0       1
 4.15026763E+00 7.54021341E-03-2.62997847E-06 4.15974048E-10-2.45407509E-14    2
 3.38566380E+04 1.72812235E+00 3.36377642E+00 2.65765722E-04 2.79620704E-05    3
-3.72986942E-08 1.51590176E-11 3.44749589E+04 7.91510092E+00 3.56701718E+04    4
CH3OH             T06/02C   1H   4O   1    0G   200.000  6000.00  1000.0       1
 3.52726795E+00 1.03178783E-02-3.62892944E-06 5.77448016E-10-3.42182632E-14    2
-2.60028834E+04 5.16758693E+00 5.65851051E+00-1.62983419E-02 6.91938156E-05    3
-7.58372926E-08 2.80427550E-11-2.56119736E+04-8.97330508E-01-2.41746056E+04    4
CH3HCO   ACETALDE L 8/88C   2H   4O   1    0G   200.000  6000.00  1000.0       1
 0.54041108E+01 0.11723059E-01-0.42263137E-05 0.68372451E-09-0.40984863E-13    2
-0.22593122E+05-0.34807917E+01 0.47294595E+01-0.31932858E-02 0.47534921E-04    3
-0.57458611E-07 0.21931112E-10-0.21572878E+05 0.41030159E+01-0.19987949E+05    4
C2H4O OXYRANE     L 8/88C   2H   4O   1    0G   200.000  6000.00  1000.0       1
 0.54887641E+01 0.12046190E-01-0.43336931E-05 0.70028311E-09-0.41949088E-13    2
-0.91804251E+04-0.70799605E+01 0.37590532E+01-0.94412180E-02 0.80309721E-04    3
-0.10080788E-06 0.40039921E-10-0.75608143E+04 0.78497475E+01-0.63304657E+04    4
C2H Ethynyl Rad   T 5/10C   2H   1    0    0G   200.000  6000.00  1000.0       1
 3.66270248E+00 3.82492252E-03-1.36632500E-06 2.13455040E-10-1.23216848E-14    2
 6.71683790E+04 3.92205792E+00 2.89867676E+00 1.32988489E-02-2.80733327E-05    3
 2.89484755E-08-1.07502351E-11 6.70616050E+04 6.18547632E+00 6.83210436E+04    4
CH2CO KETENE      g 4/02C   2H   2O   1    0G   200.000  6000.00  1000.0       1
 5.75871449E+00 6.35124053E-03-2.25955361E-06 3.62321512E-10-2.15855515E-14    2
-8.08533464E+03-4.96490444E+00 2.13241136E+00 1.81319455E-02-1.74093315E-05    3
 9.35336040E-09-2.01724844E-12-7.14808520E+03 1.33807969E+01-5.84267744E+03    4
HCCO              T 4/09C   2H   1O   1    0G   200.000  6000.00  1000.0       1
 5.91479333E+00 3.71408730E-03-1.30137010E-06 2.06473345E-10-1.21476759E-14    2
 1.93596301E+04-5.50567269E+00 1.87607969E+00 2.21205418E-02-3.58869325E-05    3
 3.05402541E-08-1.01281069E-11 2.01633840E+04 1.36968290E+01 2.14444387E+04    4
SCH2   SINGLET    IU6/03C   1H   2    0     G   200.00   6000.00  1000.0       1
 3.13501686E+00 2.89593926E-03-8.16668090E-07 1.13572697E-10-6.36262835E-15    2
 5.05040504E+04 4.06030621E+00 4.19331325E+00-2.33105184E-03 8.15676451E-06    3
-6.62985981E-09 1.93233199E-12 5.03662246E+04-7.46734310E-01 5.15727280E+04    4
C2 triplet        T05/09C   2    0    0    0G   200.000  6000.00  1000.0       1
 3.43350371E+00 1.07185010E-03-3.97897382E-07 6.67457391E-11-4.10152154E-15    2
 1.00178987E+05 4.10588356E+00 3.76163273E+00-2.72143299E-03 8.69879462E-06    3
-8.19304667E-09 2.62415296E-12 1.00254566E+05 3.18038623E+00 1.01317039E+05    4
C2O               g 8/00C   2O   1    0    0G   200.000  6000.000 1000.0       1
 5.42468378E+00 1.85393945E-03-5.17932956E-07 6.77646230E-11-3.53315237E-15    2
 4.37161379E+04-3.69608405E+00 2.86278214E+00 1.19701204E-02-1.80851222E-05    3
 1.52777730E-08-5.20063163E-12 4.43125964E+04 8.89759099E+00 4.55661248E+04    4
CH3CO             IU2/03C   2H   3O   1    0G   200.000  6000.00  1000.0       1
 0.53137165E+01 0.91737793E-02-0.33220386E-05 0.53947456E-09-0.32452368E-13    2
-0.36450414E+04-0.16757558E+01 0.40358705E+01 0.87729487E-03 0.30710010E-04    3
-0.39247565E-07 0.15296869E-10-0.26820738E+04 0.78617682E+01-0.12388039E+04    4
! Species # 99      RQCISD(T)/CBS//B3LYP/6-311++G(d,p) + BAC by C. F. Goldsmith
!acetylperoxy radical
CH3CO3 acetylperoxy     H  3 C  2 O  3      G     298.0    3000.0    1000.0    1
 7.15801302E+00 1.68385555E-02-9.00373237E-06 2.31051337E-09-2.30936859E-13    2
-2.19562215E+04-7.68488453E+00 3.66998082E+00 2.50159315E-02-1.27410138E-05    3
-7.96811171E-10 1.92432531E-12-2.09653381E+04 1.05978123E+01                   4
CH3CO3H    thergas-me05 C   2H   4O   3    0G   300.000  5000.000 1000.000     1
 0.65315688E+00 0.26417166E-01-0.10885704E-04 0.19890973E-08-0.13484053E-12    2
-0.41489789E+05 0.30740599E+02-0.37484619E+00 0.38462400E-01-0.28312688E-04    3
 0.78491587E-08 0.38013768E-12-0.42243418E+05 0.32427956E+02                   4
CH3O2             T04/10C   1H   3O   2    0G   200.000  6000.00   1000.0      1
 5.55530486E+00 9.12236137E-03-3.23851661E-06 5.18713798E-10-3.08834151E-14    2
-1.03569402E+03-3.99158547E+00 4.97169544E+00-5.29356557E-03 4.77334149E-05    3
-5.77065617E-08 2.22219969E-11-1.29022161E+02 2.81501182E+00 1.43618036E+03    4
CH3O2H            A 7/05C   1H   4O   2    0G   200.000  6000.00  1000.0       1
 7.76538058E+00 8.61499712E-03-2.98006935E-06 4.68638071E-10-2.75339255E-14    2
-1.82979984E+04-1.43992663E+01 2.90540897E+00 1.74994735E-02 5.28243630E-06    3
-2.52827275E-08 1.34368212E-11-1.68894632E+04 1.13741987E+01-1.52423685E+04    4
C2H5O2H           T02/10C   2H   6O   2    0G   200.000  6000.00  1000.0       1
 9.58691079E+00 1.48603589E-02-5.29787964E-06 8.47317148E-10-5.03436325E-14    2
-2.38367900E+04-2.28310676E+01 4.14672004E+00 9.78668137E-03 4.91492257E-05    3
-7.42532076E-08 3.11169441E-11-2.14671219E+04 9.84024999E+00-1.94936072E+04    4
C2H5O2                  C   2H   5O   20   0G   200.00   6000.00  1000.00      1
 8.88872432E+00 1.35833179E-02-4.91116949E-06 7.92343362E-10-4.73525704E-14    2
-7.44107388E+03-1.90789836E+01 4.50099327E+00 6.87965342E-03 4.74143971E-05    3
-6.92287127E-08 2.87395324E-11-5.39547911E+03 7.91490068E+00-3.45206633E+03    4
CH3CO2                  C   2H   3O   2    0G   200.000  6000.000 1000.000     1
 7.62274600E+00 9.66664529E-03-3.47122481E-06 5.60301057E-10-3.35405698E-14    2
-2.63946612E+04-1.31344143E+01 2.81652185E+00 1.74597055E-02 1.83449161E-06    3
-1.54957310E-08 7.72993893E-12-2.47922272E+04 1.30310283E+01-2.31872175E+04    4
CH3CO2H    g 6/00       C   2H   4O   2    0G   200.000  6000.000 1000.000     1
 7.67084601E+00 1.35152602E-02-5.25874333E-06 8.93184479E-10-5.53180543E-14    2
-5.57560970E+04-1.54677315E+01 2.78950201E+00 9.99941719E-03 3.42572245E-05    3
-5.09031329E-08 2.06222185E-11-5.34752488E+04 1.41053123E+01-5.19873137E+04    4
C2H5O             T06/11O   1C   2H   5    0G   200.000  6000.0   1000.0       1
 6.55053877E+00 1.32525511E-02-4.74726060E-06 7.64699226E-10-4.57008357E-14    2
-4.47191998E+03-9.61231141E+00 3.26905655E+00 9.33562904E-03 2.96317166E-05    3
-4.53411341E-08 1.88795595E-11-2.95022955E+03 1.04200942E+01-1.37951605E+03    4
C2H5OH            L 8/88C   2H   6O   1    0G   200.000  6000.00  1000.0       1
 0.65624365E+01 0.15204222E-01-0.53896795E-05 0.86225011E-09-0.51289787E-13    2
-0.31525621E+05-0.94730202E+01 0.48586957E+01-0.37401726E-02 0.69555378E-04    3
-0.88654796E-07 0.35168835E-10-0.29996132E+05 0.48018545E+01-0.28257829E+05    4
SC2H5O            T06/11C   2O   1H   5    0G   200.000  6000.00  1000.0       1
 6.35842302E+00 1.24356276E-02-4.33096839E-06 6.84530381E-10-4.03713238E-14    2
-9.53018581E+03-6.05106112E+00 4.22283250E+00 5.12174798E-03 3.48386522E-05    3
-4.91943637E-08 2.01183723E-11-8.35622088E+03 8.01675700E+00-6.64945980E+03    4
PC2H5O         T05/11   C   2H   5O   10   0G   200.00   6000.0   1000.00      1
 7.01348674E+00 1.20204391E-02-4.21992012E-06 6.70675981E-10-3.97135273E-14    2
-6.16161779E+03-8.62052409E+00 4.20954137E+00 9.12964578E-03 2.47462263E-05    3
-3.92945764E-08 1.66541312E-11-4.91511371E+03 8.30445413E+00-3.10541451E+03    4
CH2HCO *CH2-CH=O  T03/10C   2H   3O   10   0G   200.00   6000.00  1000.00      1
 6.53928338E+00 7.80238629E-03-2.76413612E-06 4.42098906E-10-2.62954290E-14    2
-1.18858659E+03-8.72091393E+00 2.79502600E+00 1.01099472E-02 1.61750645E-05    3
-3.10303145E-08 1.39436139E-11 1.62944975E+02 1.23646657E+01 1.53380440E+03    4
CN Cyanogen       IU8/03C  1.N  1.   0.   0.G   200.000  6000.000  1000.0      1
 3.39912850E+00 7.46548662E-04-1.41493852E-07 1.86747736E-11-1.26032540E-15    2
 5.16569715E+04 4.67148681E+00 3.61256069E+00-9.53015737E-04 2.13757271E-06    3
-3.05001808E-10-4.70518097E-13 5.17084034E+04 3.98238722E+00 5.27611901E+04    4
H2CN  H2C=N*   H  T 11/1C  1.H  2.N  1.   0.G   200.000  6000.000  1000.0      1
 3.80315578E+00 5.47197362E-03-1.95314875E-06 3.13362403E-10-1.86249384E-14    2
 2.71302747E+04 3.31759436E+00 3.97799555E+00-3.43275801E-03 2.59134260E-05    3
-3.04692171E-08 1.16272717E-11 2.74854081E+04 4.43067396E+00 2.86930920E+04    4
N                 L 6/88N   1    0    0    0G   200.000  6000.00  1000.0       1
 0.24159429E+01 0.17489065E-03-0.11902369E-06 0.30226244E-10-0.20360983E-14    2
 0.56133775E+05 0.46496095E+01 0.25000000E+01 0.00000000E+00 0.00000000E+00    3
 0.00000000E+00 0.00000000E+00 0.56104638E+05 0.41939088E+01 0.56850013E+05    4
NH          ATCT/AN     N   1H   1    0    0G   200.000  6000.00  1000.0       1
 2.78372644E+00 1.32985888E-03-4.24785573E-07 7.83494442E-11-5.50451310E-15    2
 4.23461945E+04 5.74084863E+00 3.49295037E+00 3.11795720E-04-1.48906628E-06    3
 2.48167402E-09-1.03570916E-12 4.21059722E+04 1.84834973E+00 4.31525130E+04    4
HCN               ATcT/AH  1.C  1.N  1.   0.G   200.000  6000.000  1000.0      1
 3.80231648E+00 3.14630087E-03-1.06315727E-06 1.66185438E-10-9.79891962E-15    2
 1.42849502E+04 1.57501632E+00 2.25901199E+00 1.00510475E-02-1.33514567E-05    3
 1.00920479E-08-3.00880408E-12 1.45903166E+04 8.91631960E+00 1.56111424E+04    4
! [_ AbsorptionCoefficients=" 1 300 785 3.09778E+01 -3.76125E-01 1.78622E-03 -4.19616E-06 5.31065E-09 -3.49672E-12 9.44469E-16 " _]
! [_ AbsorptionCoefficients=" 1 785 2500 3.32933E+00 4.96445E-03 -1.94120E-05 2.00931E-08 -9.88762E-12 2.40521E-15 -2.33153E-19 " _]
NO                RUS 89N   1O   1    0    0G   200.000  6000.00  1000.0       1
 3.26071234E+00 1.19101135E-03-4.29122646E-07 6.94481463E-11-4.03295681E-15    2
 9.92143132E+03 6.36900518E+00 4.21859896E+00-4.63988124E-03 1.10443049E-05    3
-9.34055507E-09 2.80554874E-12 9.84509964E+03 2.28061001E+00 1.09770882E+04    4
HCNO Fulminic AcidA 5/05H  1.N  1.C  1.O  1.G   200.000  6000.000  1000.0      1
 5.91979744E+00 4.00114600E-03-1.42063343E-06 2.27569621E-10-1.35504870E-14    2
 1.80385534E+04-8.26935223E+00 6.07949401E-01 2.82182431E-02-4.60451618E-05    3
 3.82559486E-08-1.23226501E-11 1.90714209E+04 1.69199098E+01 2.01698706E+04    4
C triplet        T 7/15 C   1   0.   0.   0.G   200.000  6000.000  1000.00     1
 2.61355965E+00-2.09502599E-04 1.13560743E-07-1.77761841E-11 9.11562299E-16    2
 8.54326029E+04 4.14774484E+00 2.55429132E+00-3.19806406E-04 7.22951974E-07    3
-7.14799930E-10 2.58116218E-13 8.54667077E+04 4.53080427E+00 8.62191518E+04    4
HOCN Cyanic Acid  A 5/05H  1.N  1.C  1.O  1.G   200.000  6000.000  1000.0      1
 5.28767714E+00 4.01746511E-03-1.40407465E-06 2.22562614E-10-1.31562375E-14    2
-3.77409807E+03-2.64470976E+00 2.88943546E+00 1.16487242E-02-1.08005006E-05    3
 5.44138776E-09-1.06857286E-12-3.15296691E+03 9.51295652E+00-1.85890558E+03    4
HNCO Isocyanic AciA 5/05H  1.N  1.C  1.O  1.G   200.000  6000.000  1000.0      1
 5.30045051E+00 4.02250821E-03-1.40962280E-06 2.23855342E-10-1.32499966E-14    2
-1.61995274E+04-3.11770684E+00 2.24009031E+00 1.45600497E-02-1.54352330E-05    3
 8.55535028E-09-1.79631611E-12-1.54589951E+04 1.21663775E+01-1.42642740E+04    4
NCO  (NCO)        A 5/05N  1.C  1.O  1.   0.G   200.000  6000.000  1000.0      1
 5.08064474E+00 2.37443587E-03-9.07098904E-07 1.52286713E-10-9.31009234E-15    2
 1.35781204E+04-2.15734434E+00 2.77405177E+00 9.24523481E-03-9.91773586E-06    3
 6.68461303E-09-2.09520542E-12 1.42369570E+04 9.75458670E+00 1.53995606E+04    4
! [_ AbsorptionCoefficients=" 1 300 820 9.47313E+01 -1.05713E+00 4.90429E-03 -1.04877E-05 1.16578E-08 -6.67397E-12 1.57665E-15 " _]
! [_ AbsorptionCoefficients=" 1 820 2500 2.72619E+01 1.26580E-01 -3.75408E-04 3.78748E-07 -1.86324E-10 4.55295E-14 -4.43653E-18 " _]
N2O               L 7/88N   2O   1    0    0G   200.000  6000.00  1000.0       1
 0.48230729E+01 0.26270251E-02-0.95850872E-06 0.16000712E-09-0.97752302E-14    2
 0.80734047E+04-0.22017208E+01 0.22571502E+01 0.11304728E-01-0.13671319E-04    3
 0.96819803E-08-0.29307182E-11 0.87417746E+04 0.10757992E+02 0.98141682E+04    4
NH2           IU3/03    N   1H   2    0    0G   200.000  3000.00  1000.0       1
 2.59263049E+00 3.47683597E-03-1.08271624E-06 1.49342558E-10-5.75241187E-15    2
 2.15738340E+04 7.90565351E+00 4.19198016E+00-2.04602827E-03 6.67756134E-06    3
-5.24907235E-09 1.55589948E-12 2.11864310E+04-9.04785244E-02 2.23946872E+04    4
HNO               ATcT/AH  1.N  1.O  1.   0.G   200.000  6000.000  1000.0      1
 3.16598124E+00 2.99958892E-03-3.94376786E-07-3.85344089E-11 7.07602668E-15    2
 1.17726311E+04 7.64511172E+00 4.53525574E+00-5.68543377E-03 1.85198540E-05    3
-1.71881225E-08 5.55818157E-12 1.16183003E+04 1.74315886E+00 1.28500657E+04    4
NO2               L 7/88N   1O   2    0    0G   200.000  6000.00  1000.0       1
 0.48847540E+01 0.21723955E-02-0.82806909E-06 0.15747510E-09-0.10510895E-13    2
 0.23164982E+04-0.11741695E+00 0.39440312E+01-0.15854290E-02 0.16657812E-04    3
-0.20475426E-07 0.78350564E-11 0.28966180E+04 0.63119919E+01 0.41124701E+04    4
C2N2 Dicyanogen   ATcT/AC  2.N  2.   0.   0.G   200.000  6000.000  1000.0      1
 6.70549520E+00 3.64271185E-03-1.30939702E-06 2.16421413E-10-1.31193815E-14    2
 3.48824335E+04-1.04803146E+01 2.32928126E+00 2.61540993E-02-4.90009889E-05    3
 4.61923035E-08-1.64325831E-11 3.56900732E+04 9.86348075E+00 3.71976220E+04    4
NNH               T 8/11N  2.H  1.   0.   0.G   200.000  6000.000  1000.0      1
 3.42744423E+00 3.23295234E-03-1.17296299E-06 1.90508356E-10-1.14491506E-14    2
 2.87676026E+04 6.39209233E+00 4.25474632E+00-3.45098298E-03 1.37788699E-05    3
-1.33263744E-08 4.41023397E-12 2.87932080E+04 3.28551762E+00 3.00058572E+04    4
! [_ AbsorptionCoefficients=" 2 300 1100 1.15691E+01 -3.56117E+04 3.33438E+07 -7.08740E+09 2.26363E+11 6.26830E+13 0 " _]
! [_ AbsorptionCoefficients=" 2 1100 2500 -5.10770E-02 -8.61034E+02 9.23915E+06 -2.94040E+10 3.65220E+13 -1.29468E+16 0 " _]
NH3  AMONIA       RUS 89N   1H   3    0    0G   200.000  6000.00  1000.0       1
 2.71709692E+00 5.56856338E-03-1.76886396E-06 2.67417260E-10-1.52731419E-14    2
-6.58451989E+03 6.09289837E+00 4.30177808E+00-4.77127330E-03 2.19341619E-05    3
-2.29856489E-08 8.28992268E-12-6.74806394E+03-6.90644393E-01-5.52528050E+03    4
N2H2              T 9/11N  2.H  2.   0.   0.G   200.000  6000.000  1000.0      1
 1.31115117E+00 9.00187208E-03-3.14911824E-06 4.81449581E-10-2.71897891E-14    2
 2.33863341E+04 1.64091067E+01 4.91066031E+00-1.07791880E-02 3.86516489E-05    3
-3.86501698E-08 1.34852134E-11 2.28241901E+04 9.10273396E-02 2.40806734E+04    4
CH2CHOW      cc      cc C   2H   3O   1    0G   300.000  5000.000 1389.000    01
 6.44647136E+00 7.67418446E-03-2.55298889E-06 3.88933291E-10-2.22665944E-14    2
 1.95121257E+04-7.93000911E+00 2.76406282E+00 1.50800828E-02-7.88093083E-06    3
 1.97116311E-09-1.74094646E-13 2.09267565E+04 1.22979303E+01                   4
C2H3O             A 1/05C   2H   3O   1    0G   200.000  6000.000  1000.0      1
 5.60158035E+00 9.17613962E-03-3.28028902E-06 5.27903888E-10-3.15362241E-14    2