!Combustion chemistry of ammonia/hydrogen mixtures: Jet-stirred reactor measurements and comprehensive kinetic modeling
!Xiaoyuan Zhang, Shamjad P. Moosakutty, Rajitha P. Rajan, Mourad Younes, S. Mani Sarathy
!Contanct: xiaoyuan.zhang@kaust.edu.sa

ELEMENTS
O H N C AR HE
END

SPECIES

AR      N2      H       H2      HE      AR
O       OH      H2O     HO2     H2O2    O2    OH*                                
N       NH      NH2     NH3     NNH     N2H2
N2H3    N2H4    H2NN    NO      N2O     NO2
HNO     HON     HONO    H2NO    HNOH    NH2OH
HNO2    HONO2   NO3     HNO3
CO      CO2     CH4     C2H6    !The four C1-C2 species are only defined as three-body colliders in this model

END


REACTIONS


!************************ H2/CO mechanism**************************************

!======================                                                                                                                                                      
!H2-O2 Chain Reactions                                                                                                                                                       
!======================                                                                                                                                                      
                                                                                                                                                                             
! Hong et al., Proc. Comb. Inst. 33:309-316 (2011)                                                                                                                           
H+O2=O+OH                            1.0E14   0.000   15286                                                                                                    
                                                                                                                                                                             
! Baulch et al., J. Phys. Chem. Ref. Data, 21:411 (1992)                                                                                                                     
O+H2=OH+H                            3.8E12   0.000    7948
 DUPLICATE                                                  
O+H2=OH+H                            8.8E14   0.000   19175  
 DUPLICATE                                                                                                                                                               
                                                                                                                                                                             
! Michael and Sutherland, J. Phys. Chem. 92:3853 (1988)                                                                                                                      
OH+H2=H+H2O                          2.2E08   1.510    3430                                                                                                                           
                                                                                                                                                                                                                                                                                                                                                         
! M. Sangwan, L. N. Krasnoperov, The Journal of Physical Chemistry A 116 (2012) 11817?1822.                                                                                  
OH+OH=O+H2O                          2.0E07   1.651     631 !   
 DUPLICATE
OH+OH=O+H2O                          2.6E11  -0.057    -827 ! 
 DUPLICATE
! HH: Refitted (400-3000 K) for better stability of the solvers (avoiding negative 'A') 16-04-08                                                                                                                                                               
                                                                                                                                                                             
!============================                                                                                                                                                
!H2-O2 Dissociation Reactions                                                                                                                                                
!============================                                                                                                                                                
                                                                                                                                                                             
! Tsang and Hampson, J. Phys. Chem. Ref. Data, 15:1087 (1986)                                                                                                                
H2+M=H+H+M                           4.6E19  -1.400  104380                                                                                                                          
   H2/2.5/ H2O/12/                                                                                                                                                           
   CO/1.9/ CO2/3.8/                                                                                                                                                          
   AR/0.0/ HE/0.0/                                                                                                                                                           
                                                                                                                                                                             
! Tsang and Hampson, J. Phys. Chem. Ref. Data, 15:1087 (1986)                                                                                                                
H2+AR = H+H+AR                              	5.8E18  -1.100  104380                                                                                                    
H2+HE = H+H+HE                              	5.8E18  -1.100  104380                                                                                                    
                                                                                                                                                                             
! Tsang and Hampson, J. Phys. Chem. Ref. Data, 15:1087 (1986)                                                                                                                
!O+O+M = O2+M                                	6.165E+15 -0.50  0.000E+00 
O+O+M=O2+M                           1.9E13   0.000   -1788                                                                                                    
   H2/2.5/ H2O/12/                                                                                                                                                           
   AR/0.0/ HE/0.0/                                                                                                                                                           
   CO/1.9/ CO2/3.8/                                                                                                                                                          
                                                                                                                                                                             
! Tsang and Hampson, J. Phys. Chem. Ref. Data, 15:1087 (1986)                                                                                                                
O+O+AR = O2+AR                              	1.886E+13  0.00 -1.788E+03                                                                                                     
O+O+HE = O2+HE                              	1.886E+13  0.00 -1.788E+03                                                                                                     
                                                                                                                                                                             
! Tsang and Hampson, J. Phys. Chem. Ref. Data, 15:1087 (1986)                                                                                                                
H+O+M=OH+M                           4.7E18  -1.000       0                                                                                                     
   H2/2.5/  H2O/12/                                                                                                                                                          
   AR/0.75/ HE/0.75/                                                                                                                                                         
   CO/1.9/  CO2/3.8/                                                                                                                                                         
                                                                                                                                                                           
! Srinivasan and Michael, Int. J. Chem. Kinetic. 38 (2006)                                                                                                                   
! Rate constant is for Ar with efficiencies from Michael et al., J. Phys. Chem. A, 106 (2002)                                                                                
H2O+M = H+OH+M                       6.1E27  -3.322  120790                                                                                                    
   H2/3.0/  H2O/0.0/                                                                                                                                                         
   HE/1.10/ N2/2.00/                                                                                                                                                         
   O2/1.5/                                                                                                                                                                   
! Efficiencies for CO and CO2 taken from Li et al., Int. J. Chem. Kinet. 36:566-575 (2004)                                                                                   
   CO/1.9/ CO2/3.8/                                                                                                                                                          
                                                                                                                                                                             
! Srinivasan and Michael, Int. J. Chem. Kinetic. 38 (2006)                                                                                                                   
H2O+H2O = H+OH+H2O                   1.0E26  -2.440  120180                                                                                                    
                                                                                                                                                                             
!=================================                                                                                                                                           
! Formation and consumption of HO2                                                                                                                                           
!=================================                                                                                                                                           
                                                                                                                                                                             
! High-pressure limit from Troe, Proc. Comb. Inst. 28:1463-1469 (2000)                                                                                                       
! Low-pressure  limit from Michael et al., J. Phys. Chem. A 106:5297-5313                                                                                                    
! Centering factors from Fernandes et al., Phys. Chem. Chem. Phys. 10:4313-4321 (2008)                                                                                       
!=================================================================================                                                                                           
! MAIN BATH GAS IS N2 (comment this reaction otherwise)                                                                                                                      
                                                                                                                                                                            
H+O2(+M)=HO2(+M)                     4.7E12   0.440       0 !
 LOW/6.366E20 -1.72  5.248E02/
 TROE/0.5  1E-30  1E30/                                                                                                                                                 
   H2/2.0/ H2O/14/ O2/0.78/ CO/1.9/ CO2/3.8/ AR/0.67/ HE/0.8/              

!=================================================================================
! MAIN BATH GAS IS AR OR HE (comment this reaction otherwise)
!H+O2(+M)=HO2(+M)                     4.7E12   0.440       0 !
! LOW/9.042E19 -1.50  4.922E02/
! TROE/0.5 1E-30  1E30/
!   H2/3.0/ H2O/21/ O2/1.1/ CO/2.7/ CO2/5.4/ HE/1.2/ N2/1.5/ 

!=================================================================================                                                                                           
                                                                                                                                                                             
! Michael et al., Proc. Comb. Inst. 28:1471 (2000)                                                                                                                           
!HO2+H = H2+O2                                 	3.659E+06  2.09 -1.451E+03                                                                                                   
!Scaled by 0.75                                                                                                  
HO2+H=H2+O2                          2.8E06   2.090   -1451                                                                                                                                                                             
! Mueller et al., Int. J. Chem. Kinetic. 31:113 (1999)                                                                                                                       
HO2+H=OH+OH                          7.1E13   0.000     295
HO2+H=H2O+O                          1.4E12   0.000       0 ! 
! Baulch DL Bowman CT Cobos CJ Cox RA Just Th Kerr JA Pilling MJ Stocker D Troe J Tsang W Walker RW Warnatz J JPCRD 34:757-1397 2005                                                                                                                                                                             

! Fernandez-Ramos and Varandas, J. Phys. Chem. A 106:4077-4083 (2002)                                                                                                        
!HO2+O = O2+OH                               	4.750E+10  1.00 -7.2393E+02                                                                                                    
!Scaled by 0.60                                                                                                                                                              
HO2+O=O2+OH                          2.9E10   1.000    -724                                                                                                    
                                                                                                                                                                             
! M. P. Burke, S. J. Klippenstein, L. B. Harding, Proceedings of the Combustion Institute 34 (2013) 547?55.                                                                  
HO2+OH = H2O+O2 				                1.9E20  -2.490     584                                                                                                                           
    DUPLICATE                                                                                                                                                                
HO2+OH = H2O+O2 			                    1.2E09   1.240   -1310                                                                                                                     
    DUPLICATE                                                                                                                                                                
               
!M. Burke, S. Klippenstein, Nature Chemistry, 9, 1078 C1082 (2017)
H+O2+H = H2+O2                                  8.80E+22   -1.835  800
H+O2+H = OH+OH                                  4.00E+22   -1.835  800
H+O2+O = OH+O2                                  7.35E+22   -1.835  800
H+O2+OH = H2O+O2                                2.56E+22   -1.835  800
			   
!=====================================                                                                                                                                       
!Formation and Consumption of H2O2                                                                                                                                           
!=====================================                                                                                                                                       

! D. D. Y. Zhou, K. Han, P. Zhang, L. B. Harding, M. J. Davis, R. T. Skodje, The Journal of Physical Chemistry A 116 (2012) 2089?100.                                        
HO2+HO2 = H2O2+O2                           	1.2E09   0.7712  -1825                                                                                                       
   DUPLICATE                                                                                                                                                                 
HO2+HO2 = H2O2+O2        			1.3E12   0.295    7397                   	                                                                                                   
   DUPLICATE                                                                                                                                                                 
                                                                                                                                                                             
! Troe, Combust. Flame,  158:594-601 (2011)                                                                                                                                  
! Rate constant is for Ar                                                                                                                                                    
H2O2(+M) = OH+OH(+M)            			2.0E12   0.900   48749                                                                                                            
   LOW/2.5E24  -2.300   48749/                                                                                                                                            
   TROE/0.43 1E-30 1E30/                                                                                                                                                    
   H2O/7.5/ CO2/1.6/                                                                                                                                                         
   N2/1.5/  O2/1.2/                                                                                                                                                          
   HE/0.65/ H2O2/7.7/                                                                                                                                                        
! Efficiencies for H2 and CO taken from Li et al., Int. J. Chem. Kinet. 36:566-575 (2004)                                                                                    
   H2/3.7/ CO/2.8/                                                                                                                                                           
                                                                                                                                                                             
! Tsang and Hampson, J. Phys. Chem. Ref. Data, 15:1087 (1986)                                                                                                                
H2O2+H = H2O+OH                             	2.4E13   0.000    3970                                                                                                     
H2O2+H = HO2+H2                             	4.8E13   0.000    7950                                                                                                     
H2O2+O = OH+HO2                             	9.6E06   2.000    3970                                                                                                     
                                                                                                                                                                             
! Hong et al., J. Phys. Chem. A  114 (2010) 5718?727                                                                                                                         
H2O2+OH = HO2+H2O                           	1.7E12   0.000     318                                                                                                     
   DUPLICATE                                                                                                                                                                 
H2O2+OH = HO2+H2O                           	7.6E13   0.000    7270                                                                                                     
   DUPLICATE                                                                                                                                                                 


!!***********************************THE REACTIONS OF NH3***********************************
!-----------------------N/N2 REACTIONS-----------------------------------------
!------------------------------------------------------------------------------
 N2+M=N+N+M                                      1.890E+18   -0.85   2.250E+05 ! Lamoureux 2016
 H2O/16.25/ CO/1.875/ CO2/3.75/ CH4/16.25/ C2H6/16.25/                         !
 N+O+M=NO+M                                      7.600E+14   -0.10  -1.770E+03 ! Lamoureux 2016
 H2O/16.25/ CO/1.875/ CO2/3.75/ CH4/16.25/ C2H6/16.25/                         !
 N+NO2=N2O+O                                     1.800E+12   0.00    0.000E+00 ! Lamoureux 2016
 N+O2=NO+O                                       5.841E+09   1.01    6.202E+03 ! Baulch 2005 A/6.400E+09 error (+/-0.2-0.5) 280-1500 K also used by Lamoureux 2016/Vandooren 1994 
 N+OH=NO+H                                       1.084E+14  -0.20    0.000E+00 ! Baulch 2005 A/1.084E+14 error (+/-0.1-0.4) 100-2500 K
 N+NO=N2+O                                       3.200E+13   0.00    0.000E+00 ! Baulch 2005 A/2.100E+13 error (+/-0.3) 210-3700 K also used by Tian 2009/KLIMIC2011
!------------------------------------------------------------------------------
!---------------NH REACTIONS---------------------------------------------------!
!------------------------------------------------------------------------------
!C.-X. Yao, P.-Y. Zhang, Z.-X. Duan, G.-J. Zhao, Theoretical Chemistry Accounts 133 (2014) 1489.  
 NH+H=N+H2                                       1.650E+11	 0.71	 9.31E+02
!R. Guadagnini, G.C. Schatz, S.P. Walch, J. Chem. Phys. 102 (1995) 784-791. 
 NH+O=NO+H                                       4.820E+13	 0.023	 9.50E+01
 NH+O=N+OH                                       2.070E+10	 0.622	-3.58E+02
!
!S.J. Klippenstein, et al., JPCA 113 (2009) 10241-10259.
 NH+OH=HNO+H                                     3.25E+14  -0.376     -46
 NH+OH=N+H2O                                     1.59E+07   1.733     -576
!
!O. Elishav, Progress and Prospective of Nitrogen-Based Alternative Fuels, Chemical Reviews 120 (2020) 5352-5436.
 NH+O2=HNO+O                                     3.32E+09	1.034	1.142E+04
!H.J. R  mming, Proc. Combust. Inst. 26 (1996) 559-566. 
 NH+O2=NO+OH                                     4.50E+08	0.79	1.195E+03

!Klippenstein et al J Phys Chem A 113 10241-10259 (2009)
 NH+NH=>N2+H2				                     6.260E+12   -0.036   -160.9   !High-Pressure rate, dissociation of N2H2 (10%)
 NH+NH=>N2+H+H				                     5.634E+13   -0.036   -160.9   !High-Pressure rate, dissociation of N2H2 (90%)
! 
 NH+N=N2+H                                       3.000E+13   0.00    0.000E+00 ! KLIMIC2011 cited Skreiberg 2004
!Baulch DL Bowman CT Cobos CJ Cox RA Just Th Kerr JA Pilling MJ Stocker D Troe J Tsang W Walker RW Warnatz J JPCRD 34:757-1397 2005 
 NH+NO=N2O+H                                     2.70E+15  -0.780      20
 NH+NO=N2+OH                                     6.80E+14  -0.780      20
!Harrison JA Whyte AR Phillips LF CPL 129:346 1986
 NH+NO2=N2O+OH                                   4.100E+12   0.00    0.000E+00
 NH+NO2=HNO+NO                                   5.900E+12   0.00    0.000E+00
! 
 NH+HONO=NH2+NO2                                 1.000E+13   0.00    0.000E+00 ! KLIMIC2011
 NH+N2O=N2+HNO                                   2.000E+12   0.00    6.000E+03 ! Duynslaegher 2012
!------------------------------------------------------------------------------
!----------------------NH2 REACTIONS-------------------------------------------
!------------------------------------------------------------------------------
!J. Deppe, Berichte der Bunsengesellschaft f  r physikalische Chemie 102 (1998) 1474-1485.
 NH2+M=NH+H+M                                     1.2E+15     0.00   76002.75
 
!Y. Li, S.M. Sarathy, Int. J. Hydrogen Energy 45 (2020) 23624-23637.
 NH2+H=NH+H2                                      1.09E+05    2.59     1812.3264
 
!S. Inomata, N. Washida, J. Phys. Chem. A 103 (1999) 5023-5031.
 NH2+O=NH+OH              7.23E+12	0	0.00E+00
 
!Sumathi, R., et al. J Phys Chem A, 102(18), 3175-3183. (1998)
NH2+O=HNO+H				 .1500E+16   -.547    836.7
 DUPLICATE
NH2+O=HNO+H				 .7730E+14   -.277    646.4
 DUPLICATE 

!Y. Li, S.M. Sarathy, Int. J. Hydrogen Energy 45 (2020) 23624-23637.
 NH2+OH=NH+H2O                                    4.04E+04    2.52      -616.032
!Y. Song, H. Hashemi, J.M. Christensen, C. Zou, P. Marshall, P. Glarborg, Ammonia oxidation at high pressure and intermediate temperatures, Fuel 181 (2016) 358-365. 
 NH2+HO2=H2NO+OH                                 5.000E+13   0.00    0.000E+00    

!J.E. Chavarrio, M. Monge-Palacios, X. Zhang, S.M. Sarathy, Probing the gas-phase oxidation of ammonia - I: Addressing uncertainties with theoretical calculations, Combust. Flame, (2021) submitted.
 NH2+HO2 = NH3+O2        2.18E+06	2.08E+00	-4.76E+03

!S.J. Klippenstein, L.B. Harding, P. Glarborg, J.A. Miller, The role of NNH in NO formation and control, Combustion and Flame 158 (2011) 774-789. 
 NH2+O2=H2NO+O                                   2.60E+11	0.4872	2.91E+04  !2.60E+11
 NH2+O2=HNO+OH                                   2.90E-02   3.7640  18185 

!P. Dransfeld and H. Gg. Wagner Zeitschrift f  r Physikalische Chemie, 153 (1987) 89. 
 NH2+N=N2+H+H                                    6.900E+13   0.00    0.000E+00 

!S.J. Klippenstein, L.B. Harding, P. Glarborg, J.A. Miller, Combustion and Flame 158 (2011) 774-789.
NH2+NO=NNH+OH                        3.1E13   -0.48    1180
NH2+NO=N2+H2O                        1.3E16   -1.25       0
 DUP
NH2+NO=N2+H2O                       -3.1E13   -0.48    1180
 DUP

!P. Glarborg, J.A. Miller, B. Ruscic, S.J. Klippenstein, Prog. Energy Combust. Sci. 67 (2018) 31-68
 NH2+NO2=H2NO+NO                                 8.600E11   0.110   -1186
 NH2+NO2=N2O+H2O                                 2.200E11   0.110   -1186
 
!S. Xu, M.C. Lin, Int J Chem Kinet 41: 667 677, 2009. 550-3000 K
 NH2+HNO=NH3+NO                                  5.9E02   2.950   -3469
 
!S. Xu, M.C. Lin, Int J Chem Kinet 41: 678 688, 2009. 650-3000 K
 NH2+HONO=NH3+NO2                                4.84E+00	 3.36	 -4.58E+03
!
 NH+NH=NH2+N                                     5.700E-01   3.88    3.420E+02 ! KLIMIC2009, 300-2500 K
 NH2+NH2=NH3+NH                                  5.636E+00   3.53    5.526E+02 ! KLIMIC2009 300-2500 K
 NH2+NH=NH3+N                                    9.574E+03   2.46    1.073E+02 ! KLIMIC2009 200-2500 K
 
!------------------------------------------------------------------------------
!---------------------N2H2 REACTIONS-------------------------------------------
!------------------------------------------------------------------------------

!Dean AM Bozzelli JW (Gardiner WC) Gas Phase Combustion Chemistry, Springer 2000