THERMO ALL
  300.000  1000.000  5000.000
!BURCAT
!H298 = 0
!S298 = 31.23 cal/mol/K
H2                RUS-78H   2               G     200.0    6000.0  1000.0      1
    2.9328305E0   8.2659802E-4  -1.4640057E-7  1.5409851E-11 -6.8879615E-16    2
   -8.1305582E2   -1.0243164E0    2.3443029E0   7.9804248E-3  -1.9477917E-5    3
   2.0156967E-8 -7.3760289E-12   -9.1792413E2   6.8300218E-1                   4
!BURCAT
!H298 = 52.10 kcal/mol
!S298 = 27.42 cal/mol/K
H                 L-6-94H   1               G     200.0    6000.0  1000.0      1
          2.5E0          0.0E0          0.0E0          0.0E0          0.0E0    2
     2.547366E4  -4.4668285E-1          2.5E0          0.0E0          0.0E0    3
          0.0E0          0.0E0     2.547366E4  -4.4668285E-1                   4
!BURCAT
!H298 = 59.55 kcal/mol
!S298 = 38.49 cal/mol/K
O                 L-1-90O   1               G     200.0    6000.0  1000.0      1
   2.54363697E0 -2.73162486E-5  -4.1902952E-9 4.95481845E-12-4.79553694E-16    2
    2.9226012E4   4.92229457E0    3.1682671E0 -3.27931884E-3  6.64306396E-6    3
 -6.12806624E-9 2.11265971E-12   2.91222592E4   2.05193346E0                   4
!OCHCHO            P_M 00H   2C   2O   2    0G   300.00   3000.00  1000.00      1 ! ***
! 0.49087462E+01 0.13182673E-01-0.71416730E-05 0.18461316E-08-0.18525858E-12    2
!-0.27116386E+05 0.59148768E+00 0.25068862E+01 0.18899139E-01-0.10302623E-04    3
! 0.62607508E-09 0.88114253E-12-0.26427374E+05 0.13187043E+02                   4
!BURCAT
!H298 = 0
!S298 = 49.03 cal/mol/K
O2                RUS-89O   2               G     200.0    6000.0  1000.0      1
   3.66096083E0  6.56365523E-4 -1.41149485E-7 2.05797658E-11-1.29913248E-15    2
  -1.21597725E3   3.41536184E0   3.78245636E0 -2.99673415E-3    9.847302E-6    3
 -9.68129508E-9 3.24372836E-12  -1.06394356E3   3.65767573E0                   4
!H298 = 37.344+/-0.04 kJ/mol [ATcT(RUS/PIN06)]
!S298 = 43.91 cal/mol/K [BURCAT]
!Cp [BURCAT]
OH                IU3-03H   1O   1          G     200.0    6000.0  1000.0      1
   2.83853033E0  1.10741289E-3 -2.94000209E-7 4.20698729E-11 -2.4228989E-15    2
    3.7005622E3   5.84513094E0   3.99198424E0 -2.40106655E-3  4.61664033E-6    3
 -3.87916306E-9 1.36319502E-12   3.37165248E3 -1.03814059E-1                   4
!BURCAT
!H298 =-57.79 kcal/mol
!S298 = 45.13 cal/mol/K
H2O               L-5-89H   2O   1          G     200.0    6000.0  1000.0      1
    2.6770389E0   2.9731816E-3  -7.7376889E-7  9.4433514E-11 -4.2689991E-15    2
   -2.9885894E4      6.88255E0    4.1986352E0  -2.0364017E-3   6.5203416E-6    3
  -5.4879269E-9   1.771968E-12   -3.0293726E4  -8.4900901E-1                   4
!H298 = 12.296+/-0.25 kJ/mol [ATcT(RUS/PIN06)]
!S298 = 54.75 cal/mol/K [BURCAT]
!Cp [BURCAT]
HO2               L-5-89H   1O   2          G     200.0    6000.0  1000.0      1
    4.1722659E0   1.8812098E-3  -3.4629297E-7  1.9468516E-11  1.7609153E-16    2
   3.02010736E1    2.9569738E0     4.301788E0  -4.7490201E-3   2.1157953E-5    3
  -2.4275961E-8   9.292067E-12   2.63190983E2    3.7158774E0                   4
!H298 =-135.77+/-0.07 kJ/mol [ATcT(RUS/PIN06)]
!S298 = 56.05 cal/mol/K [BURCAT]
!Cp [BURCAT]
H2O2              T-8-03H   2O   2          G     200.0    6000.0  1000.0      1
   4.57977305E0  4.05326003E-3  -1.2984473E-6   1.982114E-10-1.13968792E-14    2
  -1.79847939E4   6.6496966E-1   4.31515149E0 -8.47390622E-4  1.76404323E-5    3
 -2.26762944E-8 9.08950158E-12  -1.76843601E4   3.27373216E0                   4
N                 120186N   1               G     300.0    5000.0  1000.0      1
     2.450268E0    1.066146E-4   -7.465337E-8   1.879652E-11  -1.025984E-15    2
     5.611604E4     4.448758E0     2.503071E0   -2.180018E-5    5.420529E-8    3
   -5.64756E-11   2.099904E-14      5.60989E4     4.167566E0                   4
NH                      H   1N   1          G     200.0    6000.0  1000.0      1
    2.7836929E0   1.3298429E-3  -4.2478047E-7  7.8348504E-11  -5.504447E-15    2
    4.2134514E4    5.7407798E0    3.4929084E0   3.1179197E-4  -1.4890484E-6    3
   2.4816442E-9 -1.0356967E-12    4.1894294E4    1.8483277E0                   4
NH2               121686H   2N   1          G     300.0    5000.0  1000.0      1
     2.961311E0    2.932699E-3     -9.0636E-7   1.617257E-10    -1.2042E-14    2
     2.191977E4     5.777878E0     3.432493E0     3.29954E-3     -6.6136E-6    3
    8.590947E-9  -3.572047E-12     2.177228E4     3.090111E0                   4
NH3               121386H   3N   1          G     300.0    5000.0  1000.0      1
     2.461904E0    6.059166E-3   -2.004977E-6   3.136003E-10  -1.938317E-14    2
     -6.49327E3     7.472097E0     2.204352E0    1.011476E-2   -1.465265E-5    3
    1.447235E-8  -5.328509E-12    -6.525488E3     8.127138E0                   4
N2H2              121286H   2N   2          G     300.0    5000.0  1000.0      1
     3.371185E0    6.039968E-3   -2.303854E-6   4.062789E-10  -2.713144E-14    2
     2.418172E4     4.980585E0     1.617999E0    1.306312E-2   -1.715712E-5    3
    1.605608E-8  -6.093639E-12     2.467526E4     1.379467E1                   4
NNH               120186H   1N   2          G     250.0    4000.0  1000.0      1
     4.415342E0    1.614388E-3   -1.632894E-7  -8.559846E-11   1.614791E-14    2
     2.788029E4    9.042888E-1     3.501344E0    2.053587E-3     7.17041E-7    3
   4.921348E-10   -9.67117E-13     2.833347E4     6.391837E0                   4
!H298 = 91.097+/-0.085 kJ/mol [ATcT(RUS/PIN06)]
!S298 = 50.36 cal/mol/K [BURCAT]
!Cp [BURCAT]
NO                RUS-89O   1N   1          G     200.0    6000.0  1000.0      1
   3.26071234E0  1.19101135E-3 -4.29122646E-7 6.94481463E-11-4.03295681E-15    2
   9.89456954E3   6.36900469E0   4.21859896E0 -4.63988124E-3  1.10443049E-5    3
 -9.34055507E-9 2.80554874E-12   9.81823786E3   2.28060952E0                   4
!H298 = 34.025+/-0.085 kJ/mol [ATcT(RUS/PIN06)]
!S298 = 57.40 cal/mol/K [BURCAT]
!Cp [BURCAT]
NO2               L-7-88O   2N   1          G     200.0    6000.0  1000.0      1
     4.884754E0   2.1723955E-3  -8.2806909E-7   1.574751E-10 -1.0510895E-14    2
   2.29397777E3 -1.17416951E-1    3.9440312E0   -1.585429E-3   1.6657812E-5    3
  -2.0475426E-8  7.8350564E-12   2.87409757E3    6.3119919E0                   4
N2O               121286O   1N   2          G     300.0    5000.0  1000.0      1
     4.718977E0    2.873714E-3   -1.197496E-6   2.250552E-10  -1.575337E-14    2
     8.165811E3     -1.65725E0     2.543058E0    9.492193E-3   -9.792775E-6    3
    6.263845E-9  -1.901826E-12       8.7651E3     9.511222E0                   4
!BURCAT
!H298 = 106.842+/-0.125 kJ/mol [ATcT(BURCAT)]
!S298 = 52.80 cal/mol/K
HNO               ATcT-AH   1O   1N   1     G     200.0    6000.0  1000.0      1
   3.16598124E0  2.99958892E-3 -3.94376786E-7-3.85344089E-11 7.07602668E-15    2
   1.17654289E4   7.64513642E0   4.53525574E0 -5.68543377E-3   1.8519854E-5    3
 -1.71881225E-8 5.55818157E-12   1.16110981E4   1.74318356E0                   4
N2                G-8-02N   2               G     200.0    6000.0  1000.0      1
   2.95257637E0   1.3969004E-3 -4.92631603E-7 7.86010195E-11-4.60755204E-15    2
  -9.23948688E2   5.87188762E0   3.53100528E0 -1.23660988E-4 -5.02999433E-7    3
  2.43530612E-9-1.40881235E-12  -1.04697628E3   2.96747038E0                   4
N2H3              120186H   3N   2          G     300.0    5000.0  1000.0      1
     4.441846E0    7.214271E-3   -2.495684E-6   3.920565E-10   -2.29895E-14    2
     1.664221E4   -4.275205E-1     3.174204E0    4.715907E-3    1.334867E-5    3
   -1.919685E-8   7.487564E-12      1.72727E4     7.557224E0                   4
AR                L-6-88AR  1               G     200.0    6000.0  1000.0      1
          2.5E0          0.0E0          0.0E0          0.0E0          0.0E0    2
     -7.45375E2    4.3796749E0          2.5E0          0.0E0          0.0E0    3
          0.0E0          0.0E0     -7.45375E2    4.3796749E0                   4
END