ELEMENTS
C H N O AR HE
END
SPECIES
AR                                                
N2                                                
H2                                                
H                                                 
O2                                                
O                                                 
H2O                                               
OH                                                                                      
H2O2                                              
HO2                                               
NO                                                
NO2                                               
N2O                                               
HNO                                               
HONO                                              
HNO2                                              
H2NO                                              
HNOH                                              
NH3                                               
NH2                                               
NH                                                
N                                                 
N2H4                                              
N2H3                                              
N2H2                                              
H2NN                                              
NNH                                               
NH2OH                                             
END
REACTIONS
H+O2(+AR)=HO2(+AR)                                           4.660E+12      0.44        0.0                                                           
LOW /4.57E+18 -1.12  0.0/                                                                                               
TROE /0.5 1 1E+10/                                      
H2+M<=>H+H+M                                                 +4.5770000E+019 -1.4000000E+000 +1.0440000E+005
H2/ 2.500 /
H2O/ 12.000 /
H2+O<=>H+OH                                                  +5.0800000E+004 +2.6700000E+000 +6.2920000E+003
H2+OH<=>H+H2O                                                +4.3800000E+013 +0.0000000E+000 +6.9900000E+003
O+O+M<=>O2+M                                                 +6.1650000E+015 -5.0000000E-001 +0.0000000E+000
H2/ 2.500 /
H2O/ 12.000 /
AR/ 0.830 /
O2+H<=>O+OH                                                  +1.0400000E+014 +0.0000000E+000 +1.5286000E+004
H+OH+M<=>H2O+M                                               +3.5000000E+022 -2.0000000E+000 +0.0000000E+000
H2/ 0.730 /
H2O/ 3.650 /
AR/ 0.380 /
O+H2O<=>OH+OH                                                +6.7000000E+007 +1.7040000E+000 +1.4986800E+004
O+H+M<=>OH+M                                                 +4.7140000E+018 -1.0000000E+000 +0.0000000E+000
H2/ 2.500 /
H2O/ 12.000 /
AR/ 0.750 /
H2O2(+M)<=>OH+OH(+M)                                         +2.0000000E+012 +9.0000000E-001 +4.8749000E+004
LOW /         +2.4900000E+024 -2.3000000E+000 +4.8749000E+004 /
TROE /       +4.3000000E-001 +1.0000000E-030 +1.0000000E+030 /
H2O/ 7.650 /
N2/ 1.500 /
O2/ 1.200 /
H2O2/ 7.700 /
H2/ 3.700 /
H2O2+H<=>H2O+OH                                              +2.4100000E+013 +0.0000000E+000 +3.9700000E+003
H2O2+H<=>H2+HO2                                              +2.1500000E+010 +1.0000000E+000 +6.0000000E+003
H2O2+O<=>OH+HO2                                              +9.5500000E+006 +2.0000000E+000 +3.9700000E+003
H2O2+OH<=>H2O+HO2                                            +1.7400000E+012 +0.0000000E+000 +3.1800000E+002
DUP
H2O2+OH<=>H2O+HO2                                            +7.5900000E+013 +0.0000000E+000 +7.2690000E+003
DUP
HO2+H<=>OH+OH                                                +7.0790000E+013 +0.0000000E+000 +2.9500000E+002
HO2+H<=>H2+O2                                                +1.1402000E+010 +1.0827000E+000 +5.5378000E+002
HO2+O<=>OH+O2                                                +3.2500000E+013 +0.0000000E+000 +0.0000000E+000
OH+HO2<=>H2O+O2                                              +7.0000000E+012 +0.0000000E+000 -1.0929600E+003
DUP
OH+HO2<=>H2O+O2                                              +4.5000000E+014 +0.0000000E+000 +1.0929600E+004
DUP
HO2+HO2<=>H2O2+O2                                            +1.0000000E+014 +0.0000000E+000 +1.1040883E+004
DUP
HO2+HO2<=>H2O2+O2                                            +1.9000000E+011 +0.0000000E+000 -1.4089248E+003
DUP
H+O2(+M)<=>HO2(+M)                                            4.650E+012     0.440       0.0
LOW/            1.737E+019    -1.230       0.0/
TROE/  6.700E-001  1.000E-030  1.000E+030  1.000E+030/
H2/ 1.30/
H2O/ 10.00/
AR/ 0.00/
N2+M=N+N+M                                      1.890E+18   -0.85   2.250E+05
H2O/16.25/
N+O+M=NO+M                                      7.600E+14   -0.10  -1.770E+03
H2O/16.25/
N+NO2=N2O+O                                     1.800E+12   0.00    0.000E+00
N+O2=NO+O                                       5.841E+09   1.01    6.202E+03
N+OH=NO+H                                       1.084E+14  -0.20    0.000E+00
N+NO=N2+O                                       3.200E+13   0.00    0.000E+00
NH+H=N+H2                                       2.011E+13   0.00    0.000E+00
NH+O=NO+H                                       5.000E+13   0.00    0.000E+00
NH+O=N+OH                                       3.000E+12   0.00    0.000E+00
NH+OH=HNO+H                                     4.000E+13   0.00    0.000E+00
NH+OH=NO+H2                                     2.400E+13   0.00    0.000E+00
NH+OH=N+H2O                                     2.000E+09   1.20    5.978E+00
NH+O2=HNO+O                                     4.600E+05   2.00    6.500E+03
NH+O2=NO+OH                                     1.300E+06   1.50    1.000E+02
NH+NH=N2+H+H                                    2.500E+13   0.00    0.000E+00
NH+N=N2+H                                       3.000E+13   0.00    0.000E+00
NH+NO=N2O+H                                     2.900E+14  -0.40    0.000E+00
NH+NO=N2+OH                                     2.690E+12  -0.072  -5.130E+02
NH+NO2=N2O+OH                                   4.100E+12   0.00    0.000E+00
NH+NO2=HNO+NO                                   5.900E+12   0.00    0.000E+00
NH+HONO=NH2+NO2                                 1.000E+13   0.00    0.000E+00
NH+N2O=N2+HNO                                   2.000E+12   0.00    6.000E+03
NH2+H=NH+H2                                     7.300E+13   0.00    5.000E+03
NH2+O=HNO+H                                     4.500E+13   0.00    0.000E+00
NH2+O=NH+OH                                     7.000E+12   0.00    0.000E+00
DUPLICATE
NH2+O=NH+OH                                     8.600E-01   4.00    1.673E+03
DUPLICATE
NH2+O=NO+H2                                     5.000E+12   0.00    0.000E+00
NH2+OH=NH+H2O                                   2.000E+08   1.50   -4.567E+02
NH2+HO2=H2NO+OH                                 5.000E+13   0.00    0.000E+00
NH2+HO2=NH3+O2                                  9.200E+05   1.94   -1.152E+03
NH2+O2=H2NO+O                                   2.500E+11   0.50    2.958E+04
NH2+O2=HNO+OH                                   6.200E+07   1.20    3.510E+04
NH2+NH2=NH3+NH                                  5.636E+00   3.53    5.526E+02
NH2+NH=NH3+N                                    9.574E+03   2.46    1.073E+02
NH2+N=N2+H+H                                    5.000E+13   0.00    0.000E+00
NH2+NO=N2+H2O                                   2.800E+20  -2.70    1.258E+03
NH2+NO=NNH+OH                                   3.800E+10   0.425  -8.140E+02
NH2+NO=N2O+H2                                   1.000E+13   0.00    3.370E+04
NH2+NO2=N2O+H2O                                 1.600E+16  -1.40    2.680E+02
NH2+NO2=H2NO+NO                                 6.500E+16  -1.40    2.680E+02
NH2+HNO=NH3+NO                                  3.600E+06   1.60   -1.250E+03
NH2+HONO=NH3+NO2                                7.110E+01   3.00   -4.941E+03
NH+NH=NH2+N                                     5.700E-01   3.88    3.420E+02
N2H2+M=NNH+H+M                                  1.900E+27  -3.05    6.610E+04
H2O/7/
N2H2+H=NNH+H2                                   8.500E+04   2.63    2.300E+02
N2H2+O=NH2+NO                                   1.000E+13   0.00    0.000E+00
N2H2+O=NNH+OH                                   3.300E+08   1.50    4.970E+02
N2H2+OH=NNH+H2O                                 5.900E+01   3.40    1.360E+03
N2H2+NO=N2O+NH2                                 4.000E+12   0.00    1.192E+04
N2H2+NH=NNH+NH2                                 2.400E+06   2.00   -1.192E+03
N2H2+NH2=NNH+NH3                                8.800E-02   4.05    1.610E+03
NH2+NH=N2H2+H                                   4.300E+14  -0.272  -7.700E+01
NH2+NH2=N2H2+H2                                 4.000E+13   0.00    1.184E+04
N2H2+HO2=NNH+H2O2                               1.000E+13   0.00    1.987E+03
N2H2+M=NH+NH+M                                  3.160E+16   0.00    9.935E+04
NH2+NH2(+M)=N2H4(+M)                            5.600E+14  -0.414   6.600E+01
LOW /1.6E+34 -5.49 1.987E+03/
TROE /0.31 1.0E-30 1.0E+30 1.0E+30/
N2H4+M=N2H3+H+M                                 1.000E+15   0.00    6.360E+04
N2/2.4/ NH3/3.0/ N2H4/4.0/
N2H4+H=N2H3+H2                                  7.000E+12   0.00    2.500E+03
N2H4+O=N2H2+H2O                                 4.400E+11   0.00   -1.270E+03
N2H4+O=N2H3+OH                                  6.700E+08   1.50    2.851E+03
N2H4+OH=N2H3+H2O                                4.000E+13   0.00    0.000E+00
N2H4+NH2=N2H3+NH3                               3.900E+12   0.00    1.500E+03
N2H4+H=NH2+NH3                                  4.460E+09   0.00    3.100E+03
N2H4+N2H2=N2H3+N2H3                             2.500E+10   0.50    2.980E+4
N2H4+HO2=N2H3+H2O2                              3.980E+13   0.00    1.990E+03
N2H4+NH=N2H3+NH2                                1.000E+12   0.00    1.990E+03
N2H3=N2H2+H                                     3.600E+47  -10.38   6.900E+04
N2H3+H=NH2+NH2                                  1.580E+12   0.00    0.000E+00
N2H3+H=N2H2+H2                                  2.400E+08   1.50   -1.000E+01
N2H3+H=NH3+NH                                   1.000E+11   0.00    0.000E+00
N2H3+O=N2H2+OH                                  1.700E+08   1.50   -6.460E+02
N2H3+O=NH2+HNO                                  3.000E+13   0.00    0.000E+00
N2H3+O=>NH2+NO+H                                3.000E+13   0.00    0.000E+00
N2H3+OH=N2H2+H2O                                1.200E+06   2.00   -1.192E+03
N2H3+OH=H2NN+H2O                                3.000E+13   0.00    0.000E+00
N2H3+OH=NH3+HNO                                 1.000E+12   0.00    1.500E+04
N2H3+HO2=N2H2+H2O2                              1.400E+04   2.69   -1.600E+03
N2H3+HO2=N2H4+O2                                9.200E+05   1.94    2.126E+03
N2H3+NH2=N2H2+NH3                               9.200E+05   1.94   -1.152E+03
N2H3+NH2=H2NN+NH3                               3.000E+13   0.00    0.000E+00
N2H3+NH=N2H2+NH2                                2.000E+13   0.00    0.000E+00
N2H3+M=NH2+NH+M                                 5.000E+16   0.00    6.000E+04
N2H3+N2H2=N2H4+NNH                              1.000E+13   0.00    9.940E+03
N2H3+N2H3=NH3+NH3+N2                            3.000E+12   0.00    0.000E+00
N2H2+N2H2=N2H3+NNH                              1.000E+13   0.00    9.935E+03
NH2+NH2=H2NN+H2                                 7.200E+04   1.88    8.802E+03
H2NN=NNH+H                                      3.400E+26  -4.83    4.622E+04
H2NN+H=NNH+H2                                   4.800E+08   1.50   -8.940E+02
H2NN+H=N2H2+H                                   7.000E+13   0.00    0.000E+00
H2NN+O=NNH+OH                                   3.300E+08   1.50   -8.940E+02
H2NN+O=NH2+NO                                   7.000E+13   0.00    0.000E+00
H2NN+OH=NNH+H2O                                 2.400E+06   2.00   -1.192E+03
H2NN+OH=>NH2+NO+H                               2.000E+12   0.00    0.000E+00
H2NN+HO2=>NH2+NO+OH                             9.000E+12   0.00    0.000E+00
H2NN+HO2=NNH+H2O2                               2.900E+04   2.69   -1.600E+03
H2NN+O2=NH2+NO2                                 1.500E+12   0.00    5.961E+03
H2NN+NH2=NNH+NH3                                1.800E+06   1.94   -1.152E+03
H2NO+M=HNOH+M                                   1.100E+29  -4.00    4.400E+04
H2O/10.0/
HNOH+M=HNO+H+M                                  2.000E+24  -2.80    5.893E+04
H2O/10.0/
HNOH+H=NH2+OH                                   4.000E+13   0.00    0.000E+00
HNOH+H=HNO+H2                                   4.800E+08   1.50    3.780E+02
HNOH+O=HNO+OH                                   7.000E+13   0.00    0.000E+00
DUPLICATE
HNOH+O=HNO+OH                                   3.300E+08   1.50   -3.580E+02
DUPLICATE
HNOH+OH=HNO+H2O                                 2.400E+06   2.00   -1.192E+03
HNOH+HO2=HNO+H2O2                               2.900E+04   2.70   -1.600E+03
HNOH+O2=HNO+HO2                                 3.000E+12   0.00    2.500E+04
HNOH+NH2=N2H3+OH                                1.000E+01   3.50   -4.670E+02
HNOH+NH2=H2NN+H2O                               8.800E+16  -1.10    1.113E+03
HNOH+NH2=NH3+HNO                                1.800E+06   1.90   -1.152E+03
HNOH+NO2=HONO+HNO                               6.000E+11   0.00    2.000E+03
NH2OH(+M)=NH2+OH(+M)                            1.400E+20  -1.310   6.408E+04
LOW /5.40E+37 -5.96 6.678E+04/
TROE/0.35 1E-30 1E+30 1E+30/
NH2OH+H=HNOH+H2                                 4.800E+08   1.50    6.249E+03
NH2OH+H=H2NO+H2                                 2.400E+08   1.50    5.067E+03
NH2OH+O=HNOH+OH                                 3.300E+08   1.50    3.865E+03
NH2OH+O=H2NO+OH                                 1.700E+08   1.50    3.010E+03
NH2OH+OH=HNOH+H2O                               1.500E+04   2.61   -3.537E+03
NH2OH+OH=H2NO+H2O                               1.500E+05   2.28   -1.296E+03
NH2OH+NH2=HNOH+NH3                              1.100E-01   4.00   -9.700E+01
NH2OH+NH2=H2NO+NH3                              9.500E+00   3.42   -1.013E+03
NH2OH+NH=HNOH+NH2                               2.900E-03   4.40    1.564E+03
NH2OH+NH=H2NO+NH2                               1.500E-03   4.60    2.424E+03
NH2OH+HO2=HNOH+H2O2                             2.900E+04   2.69    9.557E+03
NH2OH+HO2=H2NO+H2O2                             1.400E+04   2.69    6.418E+03
HNOH+HNO=NH2OH+NO                               1.000E+12   0.00    3.000E+03
NH3(+M)=NH2+H(+M)                               9.000E+16   -0.39   1.103E+05
LOW/2.000E+16  0.00  9.315E+04/
TROE/ 0.42  4581.0  102.0  1.0E+14/
H2/1.0/H2O/6.40/O2/0.45/N2/0.40/AR/0.35/
NH3(+M)=NH+H2(+M)                               7.000E+15   -0.39   1.103E+05
LOW/4.665E+14  0.00  9.315E+04/
TROE/ 0.42  4581.0  102.0  1.0E+14/
H2/1.0/H2O/6.40/O2/0.45/N2/0.40/AR/0.35/
NH3+H=NH2+H2                                    6.360E+05   2.39   1.017E+04
NH3+O=NH2+OH                                    1.626E+07   1.85   6.460E+03
NH3+OH=NH2+H2O                                  2.040E+06   2.04   5.660E+02
NH3+HO2=NH2+H2O2                                3.000E+11   0.00   2.200E+04
NH3+NH2=N2H3+H2                                 1.000E+11   0.50   2.160E+04
NNH=N2+H                                        6.500E+07   0.00   0.000E+00
NNH+H=N2+H2                                     1.000E+14   0.00   0.000E+00
NNH+O=N2O+H                                     1.870E+14  -0.274 -2.200E+01
NNH+O=NH+NO                                     5.180E+11   0.388 -4.090E+02
NNH+O=N2+OH                                     1.200E+13   0.145 -2.170E+02
NNH+OH=N2+H2O                                   5.000E+13   0.00   0.000E+00
NNH+O2=N2+HO2                                   2.000E+14   0.00   0.000E+00
NNH+O2=N2+H+O2                                  5.000E+13   0.00   0.000E+00
NNH+NO=N2+HNO                                   5.000E+13   0.00   0.000E+00
NNH+NH=N2+NH2                                   5.000E+13   0.00   0.000E+00
NNH+NH2=N2+NH3                                  5.000E+13   0.00   0.000E+00
NNH+NNH=N2H2+N2                                 1.000E+13   0.00   9.935E+03
NO+H(+M)=HNO(+M)                               1.520E+15  -0.41    0.000E+00
LOW/2.400E+14  0.206  -1.550E+03/
TROE /0.82  1.0E-30  1.0E+30  1.0E+30 /
N2/1.60/
HNO+O=NO+OH                                     2.300E+13   0.00   0.000E+00
HNO+H=NO+H2                                     4.400E+11   0.72   6.500E+02
HNO+OH=NO+H2O                                   3.600E+13   0.00   0.000E+00
HNO+O2=NO+HO2                                   2.000E+13   0.00   1.600E+04
HNO+N=NO+NH                                     1.000E+13   0.00   1.990E+03
HNO+N=N2O+H                                     5.000E+10   0.50   3.000E+03
HNO+NO=N2O+OH                                   2.000E+12   0.00   2.600E+04
HNO+NO2=HONO+NO                                 4.400E+04   2.60   4.040E+03
HNO+HNO=N2O+H2O                                 9.000E+08   0.00   3.100E+03
HNO+NH=NH2+NO                                   5.000E+11   0.50   0.000E+00
NO+OH(+M)=HONO(+M)                              1.100E+14  -0.30    0.000E+00
LOW / 3.392E+23 -2.51  0.000E+00/
TROE/0.75  1.0E-30  1.0E+30  1.0E+30/
NO+HO2=NO2+OH                                   2.100E+12   0.00   -4.800E+02
NO2+H2=HONO+H                                   1.300E+04   2.76    2.977E+04
NO2+H2=HNO2+H                                   2.400E+00   3.73    3.240E+04
NO2+H=NO+OH                                     2.500E+14   0.00    6.760E+02
NO2+O=NO+O2                                     1.100E+14  -0.50    0.000E+00
NO+O(+M)=NO2(+M)                                2.950E+14  -0.40    0.000E+00
LOW/3.336E+20  -1.60    0.000E+00/
TROE/0.80 1.0E-30  1.0E+30  1.0E+30/
H2/1.0/H2O/6.40/O2/0.45/N2/0.40/AR/0.35/
NO2+NO2=NO+NO+O2                                4.500E+12   0.00    2.760E+04
NO2+HO2=HONO+O2                                 1.910E+00   3.32    3.044E+03
NO2+HO2=HNO2+O2                                 1.850E+01   3.26    4.983E+03
N2O(+M)=N2+O(+M)                                1.300E+12   0.00    6.257E+04
LOW / 4.00E+14  0.000   5.660E+04/
N2/ 1.7/
O2/ 1.4/
H2O/ 12.0/
N2O+H=N2+OH                                     2.530E+10   0.00    4.550E+03
DUPLICATE
N2O+H=N2+OH                                     5.000E+14   0.00    1.810E+04
DUPLICATE
N2O+O=NO+NO                                     9.200E+13   0.00    2.767E+04
N2O+O=N2+O2                                     3.700E+12   0.00    1.593E+04
N2O+OH=N2+HO2                                   1.300E-02   4.70    3.656E+04
N2O+NO=NO2+N2                                   5.300E+05   2.20    4.628E+04
N2O+N=N2+NO                                     1.000E+13   0.00    1.987E+04
H2NO+M=HNO+H+M                                  2.800E+24  -2.80    6.491E+04
H2O/10.0/
H2NO+H=HNO+H2                                   3.000E+07   2.00    2.000E+03
H2NO+H=NH2+OH                                   5.000E+13   0.00    0.000E+00
H2NO+O=HNO+OH                                   3.000E+07   2.00    2.000E+03
H2NO+OH=HNO+H2O                                 1.000E+14   0.00    0.000E+00
H2NO+NO=HNO+HNO                                 2.000E+04   2.00    1.300E+04
H2NO+NH2=HNO+NH3                                3.000E+12   0.00    1.000E+03
H2NO+HO2=HNO+H2O2                               2.900E+04   2.70   -1.600E+03
H2NO+O2=HNO+HO2                                 3.000E+12   0.00    2.500E+04
H2NO+NO2=HONO+HNO                               6.000E+11   0.00    2.000E+03
HONO+O=NO2+OH                                   1.200E+13   0.00    6.000E+03
HONO+H=HNO+OH                                   5.600E+10   0.90    5.000E+03
HONO+H=NO+H2O                                   8.100E+06   1.90    3.850E+03
HONO+OH=NO2+H2O                                 1.700E+12   0.00   -5.200E+02
HONO+HONO=NO+NO2+H2O                            3.500E-01   3.64    1.214E+04
HNO2(+M)=HONO(+M)                               2.500E+14   0.00    3.230E+04
LOW /  3.100E+18   0.0   3.150E+04 /
TROE /1.149  1E-30  3.125E+03  1E+30 /
HNO2+O=NO2+OH                                   1.700E+08   1.50    2000.0
HNO2+OH=NO2+H2O                                 4.000E+13   0.00    0.000E+00
END
