THERMO ALL
  300.000  1000.000  5000.000
AR                G-5-97AR  1               G     200.0    6000.0  1000.0      1
          2.5E0          0.0E0          0.0E0          0.0E0          0.0E0    2
     -7.45375E2   4.37967491E0          2.5E0          0.0E0          0.0E0    3
          0.0E0          0.0E0     -7.45375E2   4.37967491E0                   4
N2                G-8-02N   2               G     200.0    6000.0  1000.0      1
   2.95257637E0   1.3969004E-3 -4.92631603E-7 7.86010195E-11-4.60755204E-15    2
  -9.23948688E2   5.87188762E0   3.53100528E0 -1.23660988E-4 -5.02999433E-7    3
  2.43530612E-9-1.40881235E-12  -1.04697628E3   2.96747038E0                   4
HE                G-5-97HE  1               G     200.0    6000.0  1000.0      1
          2.5E0          0.0E0          0.0E0          0.0E0          0.0E0    2
     -7.45375E2  9.28723974E-1          2.5E0          0.0E0          0.0E0    3
          0.0E0          0.0E0     -7.45375E2  9.28723974E-1                   4
H2                TPIS78H   2               G     200.0    6000.0  1000.0      1
   2.93286575E0  8.26608026E-4 -1.46402364E-7 1.54100414E-11  -6.888048E-16    2
  -8.13065581E2  -1.02432865E0   2.34433112E0  7.98052075E-3  -1.9478151E-5    3
  2.01572094E-8-7.37611761E-12  -9.17935173E2  6.83010238E-1                   4
H                 L-6-94H   1               G     200.0    6000.0  1000.0      1
          2.5E0          0.0E0          0.0E0          0.0E0          0.0E0    2
     2.547366E4  -4.4668285E-1          2.5E0          0.0E0          0.0E0    3
          0.0E0          0.0E0     2.547366E4  -4.4668285E-1                   4
O2                RUS-89O   2               G     200.0    6000.0  1000.0      1
   3.66096065E0  6.56365811E-4 -1.41149627E-7 2.05797935E-11-1.29913436E-15    2
  -1.21597718E3   3.41536279E0   3.78245636E0 -2.99673416E-3  9.84730201E-6    3
 -9.68129509E-9 3.24372837E-12  -1.06394356E3   3.65767573E0                   4
O                 L-1-90O   1               G     200.0    6000.0  1000.0      1
   2.54363697E0 -2.73162486E-5  -4.1902952E-9 4.95481845E-12-4.79553694E-16    2
    2.9226012E4   4.92229457E0    3.1682671E0 -3.27931884E-3  6.64306396E-6    3
 -6.12806624E-9 2.11265971E-12   2.91222592E4   2.05193346E0                   4
H2O               L-5-89H   2O   1          G     200.0    6000.0  1000.0      1
    2.6770389E0   2.9731816E-3  -7.7376889E-7  9.4433514E-11 -4.2689991E-15    2
   -2.9885894E4      6.88255E0    4.1986352E0  -2.0364017E-3   6.5203416E-6    3
  -5.4879269E-9   1.771968E-12   -3.0293726E4  -8.4900901E-1                   4
OH                IU3-03H   1O   1          G     200.0    6000.0  1000.0      1
   2.83853033E0  1.10741289E-3 -2.94000209E-7 4.20698729E-11 -2.4228989E-15    2
   3.69780808E3   5.84494652E0   3.99198424E0 -2.40106655E-3  4.61664033E-6    3
 -3.87916306E-9 1.36319502E-12   3.36889836E3 -1.03998477E-1                   4
OHV               121286H   1O   1          G     300.0    5000.0  1000.0      1
      2.88273E0   1.0139743E-3   -2.276877E-7   2.174683E-11  -5.126305E-16    2
       5.0265E4     5.595712E0     3.637266E0     1.85091E-4  -1.6761646E-6    3
    2.387202E-9  -8.431442E-13      5.00213E4    1.3588605E0                   4
H2O2              T-8-03H   2O   2          G     200.0    6000.0  1000.0      1
   4.57977305E0  4.05326003E-3  -1.2984473E-6   1.982114E-10-1.13968792E-14    2
  -1.80071775E4  6.64970694E-1   4.31515149E0 -8.47390622E-4  1.76404323E-5    3
 -2.26762944E-8 9.08950158E-12  -1.77067437E4   3.27373319E0                   4
HO2               T-1-09H   1O   2          G     200.0    5000.0  1000.0      1
   4.17228741E0  1.88117627E-3 -3.46277286E-7 1.94657549E-11 1.76256905E-16    2
   3.10206839E1   2.95767672E0   4.30179807E0 -4.74912097E-3  2.11582905E-5    3
 -2.42763914E-8 9.29225225E-12   2.64018485E2    3.7166622E0                   4
N                 120186N   1               G     300.0    5000.0  1000.0      1
     2.450268E0    1.066146E-4   -7.465337E-8   1.879652E-11  -1.025984E-15    2
     5.611604E4     4.448758E0     2.503071E0   -2.180018E-5    5.420529E-8    3
   -5.64756E-11   2.099904E-14      5.60989E4     4.167566E0                   4
NO                      O   1N   1          G    298.15    3000.0  1000.0      1
   2.79462839E0  2.12260586E-3 -1.11936971E-6 2.79521018E-10-2.68625363E-14    2
   1.00019069E4   8.88322674E0   4.15036687E0 -4.08890008E-3  9.38071726E-6    3
 -7.50908901E-9 2.11742798E-12   9.77018679E3   2.53971032E0                   4
!FROM Glarborg
NOV                  mmyO   1N   1          G     200.0    6000.0  1000.0      1
   3.26071234E0  1.19101135E-3 -4.29122646E-7 6.94481463E-11-4.03295681E-15    2
   9.92143132E3   6.36900518E0   4.21859896E0 -4.63988124E-3  1.10443049E-5    3
 -9.34055507E-9 2.80554874E-12   9.84509964E3   2.28061001E0                   4
NO2                     O   2N   1          G    298.15    3000.0  1000.0      1
   3.65239279E0   4.7163231E-3 -2.74591748E-6 7.45382834E-10-7.63891108E-14    2
   2.22493303E3    6.5268344E0   3.39100918E0  2.62448348E-3  5.09790306E-6    3
 -7.62120493E-9 2.79960135E-12   2.43407845E3   8.57220275E0                   4
N2O                     O   1N   2          G    298.15    3000.0  1000.0      1
   3.61316907E0  5.15970465E-3 -2.97227625E-6 8.00505298E-10-8.26331952E-14    2
   8.60075126E3   4.26880857E0   2.49126356E0  9.16224976E-3 -8.24847853E-6    3
  3.83289657E-9-7.19461784E-13   8.84938621E3   9.80262335E0                   4
NH3                     H   3N   1          G    298.15    3000.0  1000.0      1
   1.07096958E0  8.75466951E-3 -3.33525419E-6 4.72015791E-10-1.13562571E-14    2
  -5.77168689E3   1.49517392E1    3.2665051E0  3.05892867E-3  5.78755223E-7    3
 9.49077412E-10-9.02221969E-13  -6.36511405E3   3.58794921E0                   4
HNO                     H   1O   1N   1     G    298.15    3000.0  1000.0      1
   2.58819802E0  4.87708822E-3 -2.29243315E-6 5.82214028E-10-5.94811743E-14    2
   1.20213574E4   1.04315796E1   4.51988078E0 -5.42507623E-3  1.70239636E-5    3
 -1.48708172E-8 4.44763498E-12   1.17637925E4   1.75618526E0                   4
HON                     H   1O   1N   1     G    298.15    3000.0  1000.0      1
   3.71174626E0  3.16088951E-3 -1.33270405E-6 2.82287945E-10-2.37381901E-14    2
   2.44108221E4   5.58114551E0   3.05581786E0  4.43591111E-3  -1.2221984E-6    3
 -1.14007451E-9 6.69025432E-13   2.46094424E4   9.08279393E0                   4
!YJZ HONO=tHONO
HONO                    H   1O   2N   1     G    298.15    3000.0  1000.0      1
   4.19966671E0  5.94217338E-3 -2.95404834E-6 7.19846187E-10-6.74909061E-14    2
  -1.08122769E4   5.08809833E0   3.49106617E0  6.81116875E-3  -1.3094312E-6    3
 -2.34197204E-9 1.18931535E-12  -1.05722865E4   8.99803804E0                   4
H2NO                    H   2O   1N   1     G    298.15    3000.0  1000.0      1
   3.36485636E0  6.13307432E-3 -2.48863886E-6 4.83818467E-10-3.63995936E-14    2
   6.62654717E3    6.7531273E0   3.93370869E0  2.21175605E-3  5.86220201E-6    3
 -6.72931776E-9 2.17836171E-12   6.59507215E3   4.42022091E0                   4
NNH                     H   1N   2          G    298.15    3000.0  1000.0      1
   2.90981142E0  4.44718211E-3 -1.82919152E-6 3.64004342E-10-3.13273352E-14    2
   2.92696472E4   9.11653812E0   4.09254871E0 -2.37173287E-3  1.15311297E-5    3
 -1.06308423E-8  3.2393758E-12    2.9137498E4   3.93250587E0                   4
NH2                     H   2N   1          G    298.15    3000.0  1000.0      1
    2.6283961E0  3.44379888E-3 -1.08606365E-6 1.50714038E-10 -4.5942328E-15    2
   2.15909586E4   7.65372613E0   3.97883538E0 -5.13888088E-4  2.68436156E-6    3
  -9.188326E-10-9.82251152E-14   2.12486673E4  7.77619668E-1                   4
NH                      H   1N   1          G    298.15    3000.0  1000.0      1
   2.95100955E0  9.09994439E-4 -8.35582439E-8-5.17312027E-11 1.13981436E-14    2
   4.19707045E4   4.83056694E0   3.44697209E0  5.57847818E-4  -2.0028936E-6    3
  2.85952922E-9-1.12434284E-12   4.17899268E4   2.02990852E0                   4
HNOH                    H   2O   1N   1     G    298.15    3000.0  1000.0      1
   1.99860924E0  1.09126316E-2 -6.18399709E-6  1.61914516E-9-1.61358511E-13    2
   1.03210763E4   1.29266751E1   2.95651985E0   4.2518231E-3  8.05096459E-6    3
 -1.06999953E-8 3.62571809E-12   1.02709524E4   9.01260159E0                   4
NO3                     O   3N   1          G    298.15    3000.0  1000.0      1
   8.15905025E0 -2.66052097E-3  1.36478734E-6-3.25159761E-10 2.97032032E-14    2
   7.20537019E3  -1.49400125E1  9.62868451E-1  3.11764566E-2 -5.69690545E-5    3
  4.36163184E-8-1.22187289E-11   8.39199404E3   1.85143423E1                   4
HONO2                   H   1O   3N   1     G    298.15    3000.0  1000.0      1
   5.28851491E0  1.02507554E-2  -6.0110858E-6  1.65260052E-9-1.73502753E-13    2
  -1.85463799E4  -1.38461402E0   1.03437078E0  2.44807579E-2 -2.31762285E-5    3
   1.0309455E-8-1.64107287E-12  -1.75562224E4   1.98358158E1                   4
HNO3              121286H   1O   3N   1     G     300.0    5000.0  1000.0      1
     7.003845E0    5.811493E-3   -2.333789E-6   4.288814E-10  -2.959385E-14    2
    -1.889952E4    -1.047863E1     1.353185E0    2.220025E-2   -1.978812E-5    3
    8.773908E-9  -1.658384E-12    -1.738563E4     1.851868E1                   4
N2H2                    H   2N   2          G    298.15    3000.0  1000.0      1
   1.53340891E0  9.32034303E-3 -4.46173127E-6  1.03777534E-9-9.45361252E-14    2
   2.36253236E4   1.48958722E1    4.0659087E0 -4.34024418E-3  2.13250316E-5    3
  -1.9683988E-8 5.96855172E-12    2.3295353E4   3.56067162E0                   4
N2H3                    H   3N   2          G    298.15    3000.0  1000.0      1
   3.20302281E0  7.99162955E-3 -3.10892955E-6 5.91433018E-10-4.34549709E-14    2
   2.58689598E4   8.45902214E0   3.80271862E0  5.52764141E-3  6.84860021E-7    3
 -2.00296493E-9 6.21445742E-13   2.57522809E4   5.58213774E0                   4
N2H4                    H   4N   2          G    298.15    3000.0  1000.0      1
   3.21893892E0  1.23204128E-2  -5.4437215E-6   1.2222335E-9 -1.1073652E-13    2
   1.05061274E4   6.57037382E0  9.42542945E-1  2.13488271E-2 -1.88705886E-5    3
  1.00963087E-8-2.30996292E-12   1.09652651E4   1.75719609E1                   4
H2NN                    H   2N   2          G    298.15    3000.0  1000.0      1
   1.46257631E0  1.01013888E-2 -5.16789506E-6  1.27606779E-9 -1.2233255E-13    2
    3.5591851E4   1.51070949E1   3.87707453E0 -2.65244519E-3  1.86066175E-5    3
 -1.76694483E-8 5.38800676E-12   3.52637434E4   4.23249694E0                   4
NH2OH             ATcT-AH   3O   1N   1     G     200.0    6000.0  1000.0      1
   3.88112502E0  8.15708448E-3 -2.82615576E-6 4.37930933E-10-2.52724604E-14    2
  -6.86018419E3   3.79156136E0   3.21016092E0  6.19671676E-3  1.10594948E-5    3
 -1.96668262E-8  8.8251659E-12  -6.58148481E3   7.93293571E0                   4
HNO2                    H   1O   2N   1     G    298.15    3000.0  1000.0      1
   2.71886798E0  9.23249468E-3  -5.0092216E-6  1.30155189E-9-1.30503734E-13    2
  -6.61949139E3   1.03430537E1   2.86816457E0  4.08036347E-3  9.55139253E-6    3
 -1.29604691E-8 4.57373772E-12  -6.42160346E3   1.07615202E1                   4
N2O4                    O   4N   2          G    298.15    3000.0  1000.0      1
   8.07873654E0  1.21148668E-2 -7.75596278E-6  2.25245174E-9-2.44865233E-13    2
   -2.2459867E3  -1.36767979E1   4.01747657E0  2.19402007E-2 -1.28644048E-5    3
-7.61626136E-10 2.11358071E-12  -1.11274941E3   7.52136027E0                   4
N2O3                    O   3N   2          G    298.15    3000.0  1000.0      1
   7.89162265E0  7.26770322E-3 -4.51928602E-6  1.31071704E-9-1.42420748E-13    2
    7.5435397E3   -1.1375392E1   4.44942395E0  1.69956247E-2 -1.30498583E-5    3
  2.95689187E-9 4.56253878E-13   8.43402311E3   6.24144529E0                   4
END