!=== Sub-mechanism with Carbon number <= 0 ===

!++++++++++++++++++++++++++++++++++++++++++++++++++++++++++++++++++++++++++++++++++++++++++++++++++++++++++++++++++++++++++++++++++++++++++++++++++++++++++++++
!\START_SPECIES_LIST
!++++++++++++++++++++++++++++++++++++++++++++++++++++++++++++++++++++++++++++++++++++++++++++++++++++++++++++++++++++++++++++++++++++++++++++++++++++++++++++++
!++++++++++++++++++++++++++++++++++++++++++++++++++++++++++++++++++++++++++++++++++++++++++++++++++++++++++++++++++++++++++++++++++++++++++++++++++++++++++++++
!\END_SPECIES_LIST
!\END_SPECIES_LIST
!\START_KINETICS_INPUT
ELEMENTS
H N O AR HE 
END
SPECIES
AR N2 HE H2 H 
O2 O H2O OH OHV 
H2O2 HO2 N NO NOV 
NO2 N2O NH3 HNO HON 
HONO H2NO NNH NH2 NH 
HNOH NO3 HONO2 HNO3 N2H2 
N2H3 N2H4 H2NN NH2OH HNO2 
N2O4 N2O3 
END

REACTIONS MOLES CAL/MOLE
!++++++++++++++++++++++++++++++++++++++++++++++++++++++++++++++++++++++++++++++++++++++++++++++++++++++++++++++++++++++++++++++++++++++++++++++++++++++++++++++
!\KINETICS_MODULE: \H2_O2
!\MODCOMMENTS:
!\MODWARNINGS:
!\MODSUBMECHS:
!++++++++++++++++++++++++++++++++++++++++++++++++++++++++++++++++++++++++++++++++++++++++++++++++++++++++++++++++++++++++++++++++++++++++++++++++++++++++++++++
!----------------------------------------------------------------------------------------------------------------------------------
!\SUBMECH: \H2
!----------------------------------------------------------------------------------------------------------------------------------
!___________________________________________________________________________________________________________
!\REACTIONCLASS:  \UNIMOL                                    \A              \N              \EA
!___________________________________________________________________________________________________________
!\AUTHOR: AK !\REF: TSANG AND HAMPSON, J. PHYS. CHEM. REF. DATA, 15:1087 (1986) !\COMMENT:
!3RD BODY COLLIDER EFFICIENCIES
H2+M=2H+M    4.577E19 -1.4 1.044E5
    H2/2.5/
    H2O/12.0/
    HE/0.83/
!___________________________________________________________________________________________________________
!\REACTIONCLASS:  \ABSTRACTION                               \A              \N              \EA
!___________________________________________________________________________________________________________
!\SITE: \UNDEF
!\AUTHOR: AK !\REF:SUTHERLAND ET AL., 21ST SYMPOSIUM, P. 929 (1986) !\COMMENT:
H2+O=H+OH    5.08E4 2.67 6.292E3
!\AUTHOR: AK !\REF:LAM ET AL. SUBMITTED IJCK !\COMMENT
H2+OH=H+H2O    4.38E13 0.0 6.99E3
!----------------------------------------------------------------------------------------------------------------------------------
!\ENDSUBMECH: \H2
!----------------------------------------------------------------------------------------------------------------------------------
!----------------------------------------------------------------------------------------------------------------------------------
!\SUBMECH: \O2
!\MECHCOMMENTS:
!\MECHWARNINGS:
!----------------------------------------------------------------------------------------------------------------------------------
!___________________________________________________________________________________________________________
!\REACTIONCLASS:  \UNIMOL                                    \A              \N              \EA
!___________________________________________________________________________________________________________
!\AUTHOR: AK !\REF: TSANG AND HAMPSON, J. PHYS. CHEM. REF. DATA, 15:1087 (1986) !\COMMENT:
!3RD BODY COLLIDER EFFICIENCIES
2O+M=O2+M    6.165E15 -0.5 0.0E0
    H2/2.5/
    H2O/12.0/
    AR/0.83/
    HE/0.83/
!___________________________________________________________________________________________________________
!\REACTIONCLASS:  \RADICAL_ADDITION\H                        \A              \N              \EA
!___________________________________________________________________________________________________________
!\AUTHOR: AK !\REF: HONG ET AL. PROC. OF THE COMB. INST. 33 (2011) 309 316 !\COMMENT: 2 PARAMETER FIT
O2+H=O+OH    1.04E14 0.0 1.5286E4
!----------------------------------------------------------------------------------------------------------------------------------
!\ENDSUBMECH: \O2
!----------------------------------------------------------------------------------------------------------------------------------
!----------------------------------------------------------------------------------------------------------------------------------
!\SUBMECH: \H2O
!\MECHCOMMENTS:
!\MECHWARNINGS:
!----------------------------------------------------------------------------------------------------------------------------------
!___________________________________________________________________________________________________________
!\REACTIONCLASS:  \UNIMOL                                    \A              \N              \EA
!___________________________________________________________________________________________________________
!\AUTHOR: AK !\REF: LI IJCK 36: 566 575, 2004 !\COMMENT:OPTIMISED TO FIT H2 AND CH4 FLAMES DATA
!3RD BODY COLLIDER EFFICIENCIES
H+OH+M=H2O+M    3.5E22 -2.0 0.0E0
    H2/0.73/
    H2O/3.65/
    AR/0.38/
!___________________________________________________________________________________________________________
!\REACTIONCLASS:  \ABSTRACTION                               \A              \N              \EA
!___________________________________________________________________________________________________________
!\AUTHOR: AK !\REF: SUTHERLAND ET AL., 23RD SYMPOSIUM, P. 51 (1990) !\COMMENT:
O+H2O=2OH    6.7E7 1.704 1.49868E4
!___________________________________________________________________________________________________________
!\REACTIONCLASS:  \RADICAL_ALPHA_SCISSION                    \A              \N              \EA
!___________________________________________________________________________________________________________
!\AUTHOR: AK !\REF: TSANG AND HAMPSON, J. PHYS. CHEM. REF. DATA, 15:1087 (1986) !\COMMENT:
!3RD BODY COLLIDER EFFICIENCIES
O+H+M=OH+M    4.714E18 -1.0 0.0E0
    H2/2.5/
    H2O/12.0/
    AR/0.75/
    HE/0.75/
!===========================================================================================================
!\SUBSPECIES: \OHV
!===========================================================================================================
!___________________________________________________________________________________________________________
!\REACTIONCLASS:  \RADICAL_ALPHA_SCISSION                    \A              \N              \EA
!___________________________________________________________________________________________________________
!\AUTHOR: AK !\REF:KATHROTIA ET AL. COMB _ FLAME 2010 !\COMMENT:
!3RD BODY COLLIDER EFFICIENCIES
H+O+M=OHV+M    1.5E13 0.0 5.975E3
    H2/1.0/
    H2O/6.5/
    O2/0.4/
    N2/0.4/
    AR/0.35/
!___________________________________________________________________________________________________________
!\REACTIONCLASS:  \DEACTIVATION                              \A              \N              \EA
!___________________________________________________________________________________________________________
!\AUTHOR: AK !\REF:KATHROTIA ET AL. COMB _ FLAME 2010 !\COMMENT:
OHV+H2O=OH+H2O    5.93E12 0.5 -8.6E2
!\AUTHOR: AK !\REF:KATHROTIA ET AL. COMB _ FLAME 2010 !\COMMENT:
OHV+H2=OH+H2    2.95E12 0.5 -4.44E2
!\AUTHOR: AK !\REF:KATHROTIA ET AL. COMB _ FLAME 2010 !\COMMENT:
OHV+N2=OH+N2    1.08E11 0.5 -1.242E3
!\AUTHOR: AK !\REF:KATHROTIA ET AL. COMB _ FLAME 2010 !\COMMENT:
OHV+OH=2OH    6.01E12 0.5 -7.64E2
!\AUTHOR: AK !\REF:KATHROTIA ET AL. COMB _ FLAME 2010 !\COMMENT:
OHV+H=OH+H    1.31E12 0.5 -1.67E2
!\AUTHOR: AK !\REF:KATHROTIA ET AL. COMB _ FLAME 2010 !\COMMENT:
OHV+AR=OH+AR    1.69E12 0.0 4.135E3
!\AUTHOR: AK !\REF:KATHROTIA ET AL. COMB _ FLAME 2010 !\COMMENT:
OHV=OH    1.45E6 0.0 0.0E0
!\AUTHOR: AK !\REF:KATHROTIA ET AL. COMB _ FLAME 2010 !\COMMENT:
OHV+O2=OH+O2    2.1E12 0.5 -4.78E2
!===========================================================================================================
!\ENDSUBSPECIES: \OHV
!===========================================================================================================
!----------------------------------------------------------------------------------------------------------------------------------
!\ENDSUBMECH: \H2O
!----------------------------------------------------------------------------------------------------------------------------------
!----------------------------------------------------------------------------------------------------------------------------------
!\SUBMECH: \H2O2
!\MECHCOMMENTS:
!\MECHWARNINGS:
!----------------------------------------------------------------------------------------------------------------------------------
!___________________________________________________________________________________________________________
!\REACTIONCLASS:  \UNIMOL                                    \A              \N              \EA
!___________________________________________________________________________________________________________
!H2O2(+H2O)(=)OH+OH(+H2O) 2.000E+012 0.900 48749.0 !\AUTHOR: AK !\REF: TROE, COMBUST. FLAME, 158:594-601 (2011)!\COMMENT: RATE CONSTANT IS FOR N2
!LOW/ 1.865E+025 -2.300 48749.0/
!TROE/ 5.100E-001 1.000E-030 1.000E+030/
!\AUTHOR: AK !\REF: TROE, COMBUST. FLAME, 158:594-601 (2011)!\COMMENT: RATE CONSTANT IS FOR N2, !\COMMENT: EFFICIENCIS OF H2O FROM THE SAME REF,
!LOW-PRESSURE-LIMIT
!TROE PARAMETERS
!3RD BODY COLLIDER EFFICIENCIES
H2O2(+M)=2OH(+M)    2.0E12 0.9 4.8749E4
    H2O/7.65/
    N2/1.5/
    O2/1.2/
    HE/0.65/
    H2O2/7.7/
    H2/3.7/
    LOW/2.49E24 -2.3E0 4.8749E4/
    TROE/4.3E-1 1.0E-30 1.0E30/
!___________________________________________________________________________________________________________
!\REACTIONCLASS:  \RH_R_ABSTRACTION                          \A              \N              \EA
!___________________________________________________________________________________________________________
!\AUTHOR: AK !\REF:TSANG AND HAMPSON, J. PHYS. CHEM. REF. DATA, 15:1087 (1986) !\COMMENT:
H2O2+H=H2O+OH    2.41E13 0.0 3.97E3
!\AUTHOR: AK !\REF: ELLINGSON J. PHYS. CHEM. (2007) 111, (51), 13554-13566 !\COMMENT:
H2O2+H=H2+HO2    2.15E10 1.0 6.0E3
!\AUTHOR: AK !\REF:TSANG AND HAMPSON, J. PHYS. CHEM. REF. DATA, 15:1087 (1986) !\COMMENT:
H2O2+O=OH+HO2    9.55E6 2.0 3.97E3
!\AUTHOR: AK !\REF: HONG ET AL. J. PHYS. CHEM. A 114 (2010) 5718-5727 !\COMMENT:
H2O2+OH=H2O+HO2    1.74E12 0.0 3.18E2
    DUP
!\AUTHOR: !\REF: !\COMMENT:
H2O2+OH=H2O+HO2    7.59E13 0.0 7.269E3
    DUP
!___________________________________________________________________________________________________________
!\REACTIONCLASS:  \R_R_ABSTRACTION                           \A              \N              \EA
!___________________________________________________________________________________________________________
!\AUTHOR: KPS !\REF: NOT A CLUE WHAT REFERENCE IS HERE AS MECHANISM IS A MESS !\COMMENT: WARNING
HO2+H=2OH    7.079E13 0.0 2.95E2
!\AUTHOR: AK !\REF:MICHAEL SUTHERLAND 2000 !\COMMENT:
HO2+H=H2+O2    1.1402E10 1.0827 5.5378E2
!\AUTHOR: AK !\REF:BAULCH ET AL., J. PHYS. CHEM. REF DATA, 21:411 (1992)
HO2+O=OH+O2    3.25E13 0.0 0.0E0
!\AUTHOR: ?? !\REF: hong pci 2013 1015C !\COMMENT: WARNING
OH+HO2=H2O+O2    7.0E12 0.0 -1.09296E3
    DUP
!\AUTHOR: !\REF: !\COMMENT:
OH+HO2=H2O+O2    4.5E14 0.0 1.09296E4
    DUP
!\AUTHOR: AK !\REF: hong pci 2013, kapel 2002 !\COMMENT: WARNING
2HO2=H2O2+O2    1.0E14 0.0 1.1040883E4
    DUP
!\AUTHOR: !\REF: !\COMMENT:
2HO2=H2O2+O2    1.9E11 0.0 -1.4089248E3
    DUP
!___________________________________________________________________________________________________________
!\REACTIONCLASS:  \RADICAL_ALPHA_SCISSION                    \A              \N              \EA
!___________________________________________________________________________________________________________
!\AUTHOR: AK !\REF:FERNANDES PCCP 2008 !COMMENT: Efficiencis of AR and HE derived from seperated reactions,
!LOW-PRESSURE-LIMIT
!TROE PARAMETERS
!3RD BODY COLLIDER EFFICIENCIES
H+O2(+M)=HO2(+M)    4.65E12 0.44 0.0E0
    H2/1.3/
    HE/0.64/
    H2O/10.0/
    AR/0.5/
    LOW/1.737E19 -1.23E0 0.0E0/
    TROE/6.7E-1 1.0E-30 1.0E30 1.0E30/
!HOCO+O2(=)CO2+HO2 9.9E11 0.000 0                           !\AUTHOR: YJZ!\REF: Ahmed et al., Energy _ Fuels, 2016, 30(9): 7691-7703!\COMMENT:
!HOCO+NO(=)CO+HONO 1.5E12 0.000 0                           !\AUTHOR: YJZ!\REF: Ahmed et al., Energy _ Fuels, 2016, 30(9): 7691-7703!\COMMENT:
!===========================================================================================================
!\ENDUBSPECIES: \HOCO
!===========================================================================================================
!----------------------------------------------------------------------------------------------------------------------------------
!\ENDSUBMECH: \CO
!++++++++++++++++++++++++++++++++++++++++++++++++++++++++++++++++++++++++++++++++++++++++++++++++++++++++++++++++++++++++++++++++++++++++++++++++++++++++++++++
!\KINETICS_MODULE: \H2/CO/NOX
!\MODCOMMENTS:
!\MODWARNINGS:
!\MODSUBMECHS:
!++++++++++++++++++++++++++++++++++++++++++++++++++++++++++++++++++++++++++++++++++++++++++++++++++++++++++++++++++++++++++++++++++++++++++++++++++++++++++++++
!----------------------------------------------------------------------------------------------------------------------------------
!\SUBMECH: \N2
!\MECHCOMMENTS:
!\MECHWARNINGS:
!----------------------------------------------------------------------------------------------------------------------------------
!___________________________________________________________________________________________________________
!\REACTIONCLASS:  \UNIMOL                                    \A              \N              \EA
!___________________________________________________________________________________________________________
!\AUTHOR: YJZ !\REF:Hori 88 !\COMMENT:
N2+M=2N+M    1.89E18 -0.85 2.2495E5
    H2O/16.25/
!___________________________________________________________________________________________________________
!\REACTIONCLASS:  \ZELDOVICH MECH                            \A              \N              \EA
!\AUTHOR: YJZ !\REF:Baulch et al., J. Phys. Chem. Ref. Date, 1994, 23: 847-1033 !\COMMENT:
N+O2=NO+O    9.03E9 1.0 6.498E3
!\AUTHOR: YJZ !\REF:Miller and Bowman, PECS, 1989, 15(4): 287-338 !\COMMENT:
N+OH=NO+H    3.8E13 0.0 0.0E0
!\AUTHOR: YJZ !\REF:Abian, Alzueta and Glarborg, IJCK, 2015, 47(8): 518-532 !\COMMENT: 1.2A_9.4E12
N+NO=N2+O    1.128E13 0.14 0.0E0
!----------------------------------------------------------------------------------------------------------------------------------
!\ENDSUBMECH: \N2
!----------------------------------------------------------------------------------------------------------------------------------
!----------------------------------------------------------------------------------------------------------------------------------
!\SUBMECH: \NO
!\MECHCOMMENTS:
!\MECHWARNINGS:
!----------------------------------------------------------------------------------------------------------------------------------
!___________________________________________________________________________________________________________
!\REACTIONCLASS:  \UNIMOL                                    \A              \N              \EA
!___________________________________________________________________________________________________________
!\AUTHOR: YJZ !\REF:COHEN 91 !\COMMENT:
N+O+M=NO+M    7.6E14 -0.1 -1.77E3
    H2O/16.25/
!___________________________________________________________________________________________________________
!\REACTIONCLASS:  \R_R_ADDTION                                \A              \N              \EA
!\AUTHOR: YJZ !\REF:Baulch et al., J.Phys. Chem. Ref. Data, 2005, 34: 757-1397 !\COMMENT:
NO+HO2=NO2+OH    2.1E12 0.0 -4.97E2
!NOV+O=)NO+O     1.8E13  0.0  0.0   !\AUTHOR: YJZ !\REF:Dodd et al., JCP, 1999, 111(8): 3498-3507 !\COMMENT: FROM Glarborg
!NO+O=)NOV+O    1.8E13  0.0  5343   !\AUTHOR: YJZ !\REF:Dodd et al., JCP, 1999, 111(8): 3498-3507 !\COMMENT: FROM Glarborg
!----------------------------------------------------------------------------------------------------------------------------------
!\ENDSUBMECH: \NO
!----------------------------------------------------------------------------------------------------------------------------------
!----------------------------------------------------------------------------------------------------------------------------------
!\SUBMECH: \NO2
!\MECHCOMMENTS:
!\MECHWARNINGS:
!----------------------------------------------------------------------------------------------------------------------------------
!___________________________________________________________________________________________________________
!\REACTIONCLASS:  \UNIMOL                                    \A              \N              \EA
!___________________________________________________________________________________________________________
!\AUTHOR: YJZ !\REF:Tsang and Herron, JPCRD, 1991,20(4): 609-663 !\OMMENT:
!COMMENT: 2.0A_4.72E24 LPL has big effect on CO
NO+O(+M)=NO2(+M)    1.3E15 -0.75 0.0E0
    AR/0.6/
    NO2/6.2/
    NO/1.8/
    O2/0.8/
    N2O/4.4/
    H2O/10.0/
    LOW/9.44E24 -2.87E0 1.551E3/
    TROE/9.62E-1 1.0E1 7.962E3/
!___________________________________________________________________________________________________________
!\REACTIONCLASS:  \ABSTRACTION                                \A              \N              \EA
!\AUTHOR: YJZ !\REF:Ko and Fontijn, JPC, 1991, 95: 3984-3987 !\COMMENT: 1.2A_1.31E14 for better predicting in FR NO formation
NO2+H=NO+OH    1.507E14 0.0 3.62E2
!\AUTHOR: YJZ !\REF:Tsang and Herron, JPCRD, 1991,20(4): 609-663!\COMMENT: big effect on CO 1.5A_3.91E12
NO2+O=NO+O2    5.86E12 0.0 -2.38E2
!\AUTHOR: YJZ !\REF:JIAJUE CHAI AND F. GOLDSMITH. PCI, 2016 !\COMMENT: sum of cis- and trans-HONO
NO2+H2=HONO+H    1.155E0 3.886 2.598E4
!\AUTHOR: YJZ !\REF:JIAJUE CHAI AND F. GOLDSMITH. PCI, 2016 !\COMMENT:
NO2+H2=HNO2+H    2.39E2 3.15 3.10655E4
!\AUTHOR: YJZ !\REF:Rasmussen et al., IJCK, 2008, 40(8): 454-480 !\COMMENT:
NO2+HO2=HONO+O2    1.91E0 3.32 3.044E3
!\AUTHOR: YJZ !\REF:Rasmussen et al., IJCK, 2008, 40(8): 454-480 !\COMMENT:
NO2+HO2=HNO2+O2    1.85E1 3.26 4.983E3
!\AUTHOR: YJZ !\REF:Tsang and Herron, JPCRD, 1991,20(4): 609-663 !\COMMENT:
2NO2=NO3+NO    9.6E9 0.73 2.09E4
!\AUTHOR: YJZ !\REF:Park et al. JPCA, 1998, 102: 10099-10105 !\COMMENT:
2NO2=>2NO+O2    4.5E12 0.0 2.7599E4
!\AUTHOR: Mathieu !\REF:Zabarnic 92 !\COMMENT:
NO2+NO=N2O+O2    1.0E12 0.0 6.0E4
!\AUTHOR: YJZ !\REF:Uknow  !\COMMENT:JPL 90
NO2+N=N2O+O    1.8E12 0.0 0.0E0
!___________________________________________________________________________________________________________
!\REACTIONCLASS:  \R_ADDTION                                \A              \N              \EA
!----------------------------------------------------------------------------------------------------------------------------------
!\ENDSUBMECH: \NO2
!----------------------------------------------------------------------------------------------------------------------------------
!----------------------------------------------------------------------------------------------------------------------------------
!\SUBMECH: \N2O
!\MECHCOMMENTS:
!\MECHWARNINGS:
!----------------------------------------------------------------------------------------------------------------------------------
!___________________________________________________________________________________________________________
!\REACTIONCLASS:  \UNIMOL                                    \A              \N              \EA
!___________________________________________________________________________________________________________
!\AUTHOR: YJZ !\REF: Zuev and Starikovskii, Khim. Fiz, 1991, 10: 52-63 !\OMMENT:
!\AUTHOR: YJZ !\REF:Javoy et al., IJCK, 2009, 41(5): 357-375 !\OMMENT:
N2O(+M)=N2+O(+M)    1.69E11 0.0 5.7653E4
    O2/1.4/
    N2/1.7/
    H2O/12.0/
    NO/3.0/
    N2O/3.5/
    LOW/7.2E14 0.0E0 5.741E4/
!___________________________________________________________________________________________________________
!\REACTIONCLASS:  \ABSTRACTION                               \A              \N              \EA
!___________________________________________________________________________________________________________
!\AUTHOR: YJZ !\REF:Klippenstein et al., CNF, 2011, 158: 774-789 !\COMMENT:
N2O+H=N2+OH    6.4E7 1.835 1.3492E4
!\AUTHOR: YJZ !\REF:Hidaka J. PHY. CHEM.,1985, 89, 4903 !\COMMENT:
N2O+H=OHV+N2    1.6E14 0.0 5.03E4
!\AUTHOR: YJZ !\REF:Meagher J et al., JPCA, 2000, 104(25): 6013-6031 !\COMMENT: 0.8A_3.69E12
N2O+O=N2+O2    3.69E12 0.0 1.5936E4
!\AUTHOR: YJZ !\REF:Meagher J et al., JPCA, 2000, 104(25): 6013-6031 !\COMMENT:1.2A_9.15E13
N2O+O=2NO    9.15E13 0.0 2.7679E4
!\AUTHOR: YJZ !\REF:Mebel et al., IJCK, 1996, 28(9): 693-703 !\COMMENT:
N2O+OH=HO2+N2    1.3E-2 4.72 3.656E4
!\AUTHOR: YJZ !\REF:Mebel et al., IJCK, 1996, 28(9): 693-703 !\COMMENT:
N2O+OH=HNO+NO    1.2E-4 4.33 2.508E4
!\AUTHOR: Mathieu !\REF:unknow !\COMMENT: Public      )
N2O+N=N2+NO    1.0E13 0.0 1.987E4
!\AUTHOR: YJZ !\REF:Mebel et al., IJCK, 1996, 28(9): 693-703 !\COMMENT:
N2O+NO=NO2+N2    5.3E5 2.23 4.6281E4
!\AUTHOR: YJZ !\REF: Kosarev et al., CNF, 2007, 151: 61-73 !\COMMENT: A_2.1E14
N2O+H2=N2+H2O    2.1E14 0.0 3.25E4
!----------------------------------------------------------------------------------------------------------------------------------
!\ENDSUBMECH: \N2O
!----------------------------------------------------------------------------------------------------------------------------------
!----------------------------------------------------------------------------------------------------------------------------------
!\SUBMECH: \NO3
!\MECHCOMMENTS:
!\MECHWARNINGS:
!----------------------------------------------------------------------------------------------------------------------------------
!___________________________________________________________________________________________________________
!\REACTIONCLASS:  \UNIMOL                                    \A              \N              \EA
!___________________________________________________________________________________________________________
!\AUTHOR: YJZ !\REF:Hahn et al., PCCP, 2000, 22(2): 5098-5104 !\COMMENT:
NO2+O(+M)=NO3(+M)    3.5E12 0.24 0.0E0
    LOW/2.5E20 -1.5E0 0.0E0/
    TROE/7.1E-1 1.0E-30 1.7E3 1.0E30/
!___________________________________________________________________________________________________________
!\REACTIONCLASS:  \ABSTRACTION                               \A              \N              \EA
!___________________________________________________________________________________________________________
!\AUTHOR: YJZ !\REF:Atkinson et al., AE Part A, 1992, 26(7): 1187-1230 !\COMMENT:
NO3+H=NO2+OH    6.0E13 0.0 0.0E0
!\AUTHOR: YJZ !\REF:Atkinson et al., AE Part A, 1992, 26(7): 1187-1230 !\COMMENT:
NO3+O=NO2+O2    1.0E13 0.0 0.0E0
!\AUTHOR: YJZ !\REF:Atkinson et al., AE Part A, 1992, 26(7): 1187-1230 !\COMMENT:
NO3+OH=NO2+HO2    1.4E13 0.0 0.0E0
!\AUTHOR: YJZ !\REF:Becker et al. Ber Bunsen-Ges Phys Chem 1992, 96: 776-783 !\COMMENT:
NO3+HO2=>NO2+O2+OH    1.5E12 0.0 0.0E0
!\AUTHOR: YJZ !\REF:DeMore et al. Technical Report JPL-PUBL-90-1 1990 !\COMMENT:
NO3+NO2=>NO+NO2+O2    5.0E10 0.0 2.94E3
!----------------------------------------------------------------------------------------------------------------------------------
!\ENDSUBMECH: \NO3
!----------------------------------------------------------------------------------------------------------------------------------
!----------------------------------------------------------------------------------------------------------------------------------
!\SUBMECH: \HNO
!\MECHCOMMENTS:
!\MECHWARNINGS:
!----------------------------------------------------------------------------------------------------------------------------------
!___________________________________________________________________________________________________________
!\REACTIONCLASS:  \UNIMOL                                    \A              \N              \EA
!___________________________________________________________________________________________________________
!\AUTHOR: YJZ !\REF:EF:Tsang and Herron, JPCRD, 1991,20(4): 609-663 !\COMMENT: TROE FIT TAKE FROM Rasmussen
!\AUTHOR: YJZ !\REF:Glargorg et al., PCI, 1998, 27: 219-226 !
!\AUTHOR: YJZ !\REF:KONNOV, Combus. Flame, 2009, 156(11): 2093-2105 !
NO+H(+M)=HNO(+M)    1.52E15 -0.41 0.0E0
    H2O/10.0/
    O2/1.5/
    AR/0.75/
    H2/2.0/
    LOW/4.0E20 -1.75E0 0.0E0/
    TROE/8.2E-1 1.0E-30 1.0E30 1.0E30/
!___________________________________________________________________________________________________________
!\REACTIONCLASS:  \ABSTRACTION                               \A              \N              \EA
!___________________________________________________________________________________________________________
!\AUTHOR: YJZ !\REF:Soto et al., JCP, 1992, 97(10): 7287-7296 !\COMMENT:
HNO+H=NO+H2    4.4E11 0.72 6.5E2
!\AUTHOR: YJZ !\REF:Inomate et al., JPCA, 1999, 103(26): 5023-5031 !\COMMENT:
HNO+O=NO+OH    2.3E13 0.0 0.0E0
!\AUTHOR: YJZ !\REF:Soto et al., CP, 1991, 153(3): 415-426!\COMMENT:
HNO+OH=NO+H2O    3.6E13 0.0 0.0E0
!\AUTHOR: YJZ !\REF:Dean and Bozzelli, In Combustion Chemistry of Nitrogen, 2000: 125-341 !\COMMENT: 0.5A_2E13
HNO+O2=NO+HO2    1.0E13 0.0 1.6E4
!\AUTHOR: Mathieu !\REF:90Mar/Bro !\COMMENT:
HNO+N=NO+NH    1.0E13 0.0 1.99E3
!\AUTHOR: YJZ !\REF:Skreiberg et al., CNF, 2004, 136(4): 501-518 !\COMMENT:
HNO+NO2=NO+HONO    4.42E4 2.64 4.04E3
!\AUTHOR: YJZ !\REF:Xu and Lin, IJCK, 2009, 41: 678-688 !\COMMENT: TOTAL RATE CONSTANT AT 600-3000K
HNO+NH2=NO+NH3    1.0E0 0.0 0.0E0
    PLOG/1.316E-3 2.11E2 3.13E0 -3.4815744E3/
    PLOG/1.316E-2 4.29E1 3.31E0 -3.9783744E3/
    PLOG/1.316E-1 7.89E1 3.23E0 -3.8134368E3/
    PLOG/1.0E0 1.55E2 3.15E0 -3.6385632E3/
    PLOG/1.0E1 8.79E1 3.22E0 -3.9962592E3/
    PLOG/1.0E2 4.49E-2 4.11E0 -7.2055872E3/
!\AUTHOR: YJZ !\REF:Skreiberg et al., CNF, 2004, 136(4): 501-518 !\COMMENT:
2HNO=N2O+H2O    9.0E8 0.0 3.1E3
!----------------------------------------------------------------------------------------------------------------------------------
!\ENDSUBMECH: \HNO
!----------------------------------------------------------------------------------------------------------------------------------
!----------------------------------------------------------------------------------------------------------------------------------
!\SUBMECH: \HON
!\MECHCOMMENTS: HON CHEMISTRY HAS HIGH-SENSITIVITY TO NO FORMATION
!\MECHWARNINGS:
!----------------------------------------------------------------------------------------------------------------------------------
!\AUTHOR: YJZ !\REF:Dean and Bozzelli, In Combustion Chemistry of Nitrogen, 2000: 125-341 !\COMMENT: DB M=N2
HON+M=NO+H+M    5.1E19 -1.73 1.6045E4
    AR/0.7/
    H2O/7.0/
!\AUTHOR: YJZ !\REF:Dean and Bozzelli, In Combustion Chemistry of Nitrogen, 2000: 125-341 !\COMMENT:***       DB
HON+H=HNO+H    2.4E13 0.0 0.0E0
!\AUTHOR: YJZ !\REF:Dean and Bozzelli, In Combustion Chemistry of Nitrogen, 2000: 125-341 !\COMMENT:***       DB  0.5_A_2.0E13
HON+H=NH+OH    1.0E13 0.0 0.0E0
!\AUTHOR: YJZ !\REF:Dean and Bozzelli, In Combustion Chemistry of Nitrogen, 2000: 125-341 !\COMMENT:***       DB
HON+O=NO+OH    7.0E13 0.0 0.0E0
!\AUTHOR: YJZ !\REF:Dean and Bozzelli, In Combustion Chemistry of Nitrogen, 2000: 125-341 !\COMMENT:***       DB
HON+OH=HONO+H    4.0E13 0.0 0.0E0
!\AUTHOR: YJZ !\REF:Dean and Bozzelli, In Combustion Chemistry of Nitrogen, 2000: 125-341 !\COMMENT:***       DB
HON+O2=NO2+OH    1.0E12 0.0 4.968E3
!----------------------------------------------------------------------------------------------------------------------------------
!\ENDSUBMECH: \HON
!----------------------------------------------------------------------------------------------------------------------------------
!----------------------------------------------------------------------------------------------------------------------------------
!\SUBMECH: \HONO
!\MECHCOMMENTS:
!\MECHWARNINGS:
!----------------------------------------------------------------------------------------------------------------------------------
!___________________________________________________________________________________________________________
!\REACTIONCLASS:  \UNIMOL                                    \A              \N              \EA
!___________________________________________________________________________________________________________
!\AUTHOR: YJZ !\REF:Atkinson et al., ACP, 2004, 4(6): 1467-1738 !\COMMENT:
NO+OH(+M)=HONO(+M)    1.1E14 -0.3 0.0E0
    LOW/2.37E23 -2.4E0 0.0E0/
    TROE/8.1E-1 1.0E-30 1.0E30 1.0E30/
!___________________________________________________________________________________________________________
!\REACTIONCLASS:  \ABSTRACTION                               \A              \N              \EA
!___________________________________________________________________________________________________________
!\AUTHOR: YJZ !\REF:Hsu et al., J. Phys. Chem. A, 1997, 101: 60-66 !\COMMENT:
HONO+H=HNO+OH    5.64E10 0.86 5.0E3