#---------------------------------------------------------------------------
#  CTI File converted from Solution Object
#---------------------------------------------------------------------------

units(length = "cm", time = "s", quantity = "mol", act_energy = "cal/mol")

ideal_gas(name = "gas", 
     elements = "N H O", 
     species = """ N2 H2 H O2 O H2O OH H2O2 HO2 NO N2O N NH NNH NH2 """, 
     reactions = "all", 
     initial_state = state(temperature = 3.000000E+02, pressure= 1.013250E+05)   )       

#---------------------------------------------------------------------------
#  Species data
#---------------------------------------------------------------------------

species(name = "N2",
    atoms = "N:2", 
    thermo = (
       NASA(   [300.0, 1000.0], [3.531005280e+00, -1.236609880e-04,
                -5.029994330e-07, 2.435306120e-09,
                -1.408812350e-12,
                -1.046976280e+03, 2.967470380e+00]  ),
       NASA(   [1000.0, 4000.0], [2.952576370e+00, 1.396900400e-03,
                -4.926316030e-07, 7.860101950e-11,
                -4.607552040e-15,
                -9.239486880e+02, 5.871887620e+00]  )
               ),
    transport = gas_transport(
                   geom = "linear",
                   diam = 3.621, 
                   well_depth = 97.53, 
                   polar = 1.76, 
                   rot_relax = 4.0) 
        )

species(name = "H2",
    atoms = "H:2", 
    thermo = (
       NASA(   [200.0, 1000.0], [2.344331120e+00, 7.980520750e-03,
                -1.947815100e-05, 2.015720940e-08,
                -7.376117610e-12,
                -9.179351730e+02, 6.830102380e-01]  ),
       NASA(   [1000.0, 6000.0], [2.932865750e+00, 8.266080260e-04,
                -1.464023640e-07, 1.541004140e-11,
                -6.888048000e-16,
                -8.130655810e+02,
                -1.024328650e+00]  )
               ),
    transport = gas_transport(
                   geom = "linear",
                   diam = 2.9200000000000004, 
                   well_depth = 38.0, 
                   polar = 0.7900000000000001, 
                   rot_relax = 280.0) 
        )

species(name = "H",
    atoms = "H:1", 
    thermo = (
       NASA(   [300.0, 1000.0], [2.500000000e+00, 0.000000000e+00,
                0.000000000e+00, 0.000000000e+00,
                0.000000000e+00, 2.547366000e+04,
                -4.466828500e-01]  ),
       NASA(   [1000.0, 4000.0], [2.500000000e+00, 0.000000000e+00,
                0.000000000e+00, 0.000000000e+00,
                0.000000000e+00, 2.547366000e+04,
                -4.466828500e-01]  )
               ),
    transport = gas_transport(
                   geom = "atom",
                   diam = 2.05, 
                   well_depth = 145.0, 
                   polar = 0.0, 
                   rot_relax = 0.0) 
        )

species(name = "O2",
    atoms = "O:2", 
    thermo = (
       NASA(   [300.0, 1000.0], [3.782456360e+00, -2.996734160e-03,
                9.847302010e-06, -9.681295090e-09,
                3.243728370e-12, -1.063943560e+03,
                3.657675730e+00]  ),
       NASA(   [1000.0, 4000.0], [3.660960650e+00, 6.563658110e-04,
                -1.411496270e-07, 2.057979350e-11,
                -1.299134360e-15,
                -1.215977180e+03, 3.415362790e+00]  )
               ),
    transport = gas_transport(
                   geom = "linear",
                   diam = 3.458, 
                   well_depth = 107.4, 
                   polar = 1.6, 
                   rot_relax = 3.8) 
        )

species(name = "O",
    atoms = "O:1", 
    thermo = (
       NASA(   [200.0, 1000.0], [3.168267100e+00, -3.279318840e-03,
                6.643063960e-06, -6.128066240e-09,
                2.112659710e-12, 2.912225920e+04,
                2.051933460e+00]  ),
       NASA(   [1000.0, 6000.0], [2.543636970e+00, -2.731624860e-05,
                -4.190295200e-09, 4.954818450e-12,
                -4.795536940e-16, 2.922601200e+04,
                4.922294570e+00]  )
               ),
    transport = gas_transport(
                   geom = "atom",
                   diam = 2.7500000000000004, 
                   well_depth = 80.0, 
                   polar = 0.0, 
                   rot_relax = 0.0) 
        )

species(name = "H2O",
    atoms = "H:2  O:1", 
    thermo = (
       NASA(   [300.0, 1000.0], [4.198635200e+00, -2.036401700e-03,
                6.520341600e-06, -5.487926900e-09,
                1.771968000e-12, -3.029372600e+04,
                -8.490090100e-01]  ),
       NASA(   [1000.0, 4000.0], [2.677038900e+00, 2.973181600e-03,
                -7.737688900e-07, 9.443351400e-11,
                -4.268999100e-15,
                -2.988589400e+04, 6.882550000e+00]  )
               ),
    transport = gas_transport(
                   geom = "nonlinear",
                   diam = 2.6050000000000004, 
                   well_depth = 572.4, 
                   polar = 0.0, 
                   rot_relax = 4.0, 
                   dipole= 1.8440005262719967) 
        )

species(name = "OH",
    atoms = "H:1  O:1", 
    thermo = (
       NASA(   [300.0, 1000.0], [3.991984240e+00, -2.401066550e-03,
                4.616640330e-06, -3.879163060e-09,
                1.363195020e-12, 3.368898360e+03,
                -1.039984770e-01]  ),
       NASA(   [1000.0, 4000.0], [2.838530330e+00, 1.107412890e-03,
                -2.940002090e-07, 4.206987290e-11,
                -2.422898900e-15, 3.697808080e+03,
                5.844946520e+00]  )
               ),
    transport = gas_transport(
                   geom = "linear",
                   diam = 2.7500000000000004, 
                   well_depth = 80.0, 
                   polar = 0.0, 
                   rot_relax = 0.0) 
        )

species(name = "H2O2",
    atoms = "H:2  O:2", 
    thermo = (
       NASA(   [300.0, 1000.0], [4.315151490e+00, -8.473906220e-04,
                1.764043230e-05, -2.267629440e-08,
                9.089501580e-12, -1.770674370e+04,
                3.273733190e+00]  ),
       NASA(   [1000.0, 4000.0], [4.579773050e+00, 4.053260030e-03,
                -1.298447300e-06, 1.982114000e-10,
                -1.139687920e-14,
                -1.800717750e+04, 6.649706940e-01]  )
               ),
    transport = gas_transport(
                   geom = "nonlinear",
                   diam = 3.458, 
                   well_depth = 107.4, 
                   polar = 0.0, 
                   rot_relax = 3.8) 
        )

species(name = "HO2",
    atoms = "H:1  O:2", 
    thermo = (
       NASA(   [300.0, 1000.0], [4.301798070e+00, -4.749120970e-03,
                2.115829050e-05, -2.427639140e-08,
                9.292252250e-12, 2.640184850e+02,
                3.716662200e+00]  ),
       NASA(   [1000.0, 4000.0], [4.172287410e+00, 1.881176270e-03,
                -3.462772860e-07, 1.946575490e-11,
                1.762569050e-16, 3.102068390e+01,
                2.957676720e+00]  )
               ),
    transport = gas_transport(
                   geom = "nonlinear",
                   diam = 3.458, 
                   well_depth = 107.4, 
                   polar = 0.0, 
                   rot_relax = 1.0) 
        )

species(name = "NO",
    atoms = "N:1  O:1", 
    thermo = (
       NASA(   [200.0, 1000.0], [4.218598960e+00, -4.639881240e-03,
                1.104430490e-05, -9.340555070e-09,
                2.805548740e-12, 9.845099640e+03,
                2.280610010e+00]  ),
       NASA(   [1000.0, 6000.0], [3.260712340e+00, 1.191011350e-03,
                -4.291226460e-07, 6.944814630e-11,
                -4.032956810e-15, 9.921431320e+03,
                6.369005180e+00]  )
               ),
    transport = gas_transport(
                   geom = "linear",
                   diam = 3.621, 
                   well_depth = 97.5, 
                   polar = 1.76, 
                   rot_relax = 4.0) 
        )

species(name = "N2O",
    atoms = "N:2  O:1", 
    thermo = (
       NASA(   [200.0, 1000.0], [2.257150200e+00, 1.130472800e-02,
                -1.367131900e-05, 9.681980300e-09,
                -2.930718200e-12, 8.741774600e+03,
                1.075799200e+01]  ),
       NASA(   [1000.0, 6000.0], [4.823072900e+00, 2.627025100e-03,
                -9.585087200e-07, 1.600071200e-10,
                -9.775230200e-15, 8.073404700e+03,
                -2.201720800e+00]  )
               ),
    transport = gas_transport(
                   geom = "linear",
                   diam = 3.8280000000000003, 
                   well_depth = 232.4, 
                   polar = 0.0, 
                   rot_relax = 1.0) 
        )

species(name = "N",
    atoms = "N:1", 
    thermo = (
       NASA(   [200.0, 1000.0], [2.500000000e+00, 0.000000000e+00,
                0.000000000e+00, 0.000000000e+00,
                0.000000000e+00, 5.610463800e+04,
                4.193908800e+00]  ),
       NASA(   [1000.0, 6000.0], [2.415942900e+00, 1.748906500e-04,
                -1.190236900e-07, 3.022624400e-11,
                -2.036098300e-15, 5.613377500e+04,
                4.649609500e+00]  )
               ),
    transport = gas_transport(
                   geom = "atom",
                   diam = 3.2980000000000005, 
                   well_depth = 71.4, 
                   polar = 0.0, 
                   rot_relax = 0.0) 
        )

species(name = "NH",
    atoms = "H:1  N:1", 
    thermo = (
       NASA(   [200.0, 1000.0], [3.492950370e+00, 3.117957200e-04,
                -1.489066280e-06, 2.481674020e-09,
                -1.035709160e-12, 4.210597220e+04,
                1.848349730e+00]  ),
       NASA(   [1000.0, 6000.0], [2.783726440e+00, 1.329858880e-03,
                -4.247855730e-07, 7.834944420e-11,
                -5.504513100e-15, 4.234619450e+04,
                5.740848630e+00]  )
               ),
    transport = gas_transport(
                   geom = "linear",
                   diam = 2.6500000000000004, 
                   well_depth = 80.0, 
                   polar = 0.0, 
                   rot_relax = 4.0) 
        )

species(name = "NNH",
    atoms = "H:1  N:2", 
    thermo = (
       NASA(   [200.0, 1000.0], [4.254746320e+00, -3.450982980e-03,
                1.377886990e-05, -1.332637440e-08,
                4.410233970e-12, 2.879320800e+04,
                3.285517620e+00]  ),
       NASA(   [1000.0, 6000.0], [3.427444230e+00, 3.232952340e-03,
                -1.172962990e-06, 1.905083560e-10,
                -1.144915060e-14, 2.876760260e+04,
                6.392092330e+00]  )
               ),
    transport = gas_transport(
                   geom = "nonlinear",
                   diam = 3.798, 
                   well_depth = 71.4, 
                   polar = 0.0, 
                   rot_relax = 1.0) 
        )

species(name = "NH2",
    atoms = "H:2  N:1", 
    thermo = (
       NASA(   [200.0, 1000.0], [4.191980160e+00, -2.046028270e-03,
                6.677561340e-06, -5.249072350e-09,
                1.555899480e-12, 2.118632860e+04,
                -9.047852440e-02]  ),
       NASA(   [1000.0, 3000.0], [2.592630490e+00, 3.476835970e-03,
                -1.082716240e-06, 1.493425580e-10,
                -5.752411870e-15, 2.157373200e+04,
                7.905653510e+00]  )
               ),
    transport = gas_transport(
                   geom = "nonlinear",
                   diam = 2.6500000000000004, 
                   well_depth = 80.0, 
                   polar = 2.2600000000000002, 
                   rot_relax = 4.0) 
        )

#---------------------------------------------------------------------------
#  Reaction Data
#---------------------------------------------------------------------------

#  Reaction 1
three_body_reaction( "H2 + M <=> 2 H + M",  [4.577000E+19, -1.400000E+00, 1.044000E+05],
       efficiencies = "H2:2.5  H2O:12.0") 

#  Reaction 2
reaction( "H2 + O <=> H + OH", [5.080000E+04, 2.670000E+00, 6.292000E+03])

#  Reaction 3
reaction( "H2 + OH <=> H + H2O", [4.380000E+13, 0.000000E+00, 6.990000E+03])

#  Reaction 4
reaction( "H + O2 <=> O + OH", [1.140000E+14, 0.000000E+00, 1.528600E+04])

#  Reaction 5
three_body_reaction( "H + OH + M <=> H2O + M",  [3.500000E+22, -2.000000E+00, 0.000000E+00],
       efficiencies = "H2:0.73  H2O:3.65") 

#  Reaction 6
reaction( "H2O + O <=> 2 OH", [6.700000E+07, 1.704000E+00, 1.498680E+04])

#  Reaction 7
three_body_reaction( "H + O + M <=> OH + M",  [4.714000E+18, -1.000000E+00, 0.000000E+00],
       efficiencies = "H2:2.5  H2O:12.0") 

#  Reaction 8
falloff_reaction( "H2O2 (+M) <=> 2 OH (+M)",
        kf = [2.000000E+12, 9.000000E-01, 4.874900E+04],
        kf0   = [2.490000E+24, -2.300000E+00, 4.874900E+04],
        efficiencies = "H2:3.7  H2O:7.65  N2:1.5  O2:1.2",
        falloff = Troe(A = 0.43, T3 = 1e-30, T1 = 1.0000000000000002e+30, T2 = 0.0)       )

#  Reaction 9
reaction( "H + H2O2 <=> H2O + OH", [2.410000E+13, 0.000000E+00, 3.970000E+03])

#  Reaction 10
reaction( "H2O2 + O <=> HO2 + OH", [9.550000E+06, 2.000000E+00, 3.970000E+03])

#  Reaction 11
reaction( "H2O2 + OH <=> H2O + HO2", [1.740000E+12, 0.000000E+00, 3.180000E+02],
        options = 'duplicate')

#  Reaction 12
reaction( "H2O2 + OH <=> H2O + HO2", [7.590000E+13, 0.000000E+00, 7.269000E+03],
        options = 'duplicate')

#  Reaction 13
reaction( "H + HO2 <=> 2 OH", [7.079000E+13, 0.000000E+00, 2.950000E+02])

#  Reaction 14
reaction( "H + HO2 <=> H2 + O2", [1.140200E+10, 1.082700E+00, 5.537800E+02])

#  Reaction 15
reaction( "HO2 + O <=> O2 + OH", [3.250000E+13, 0.000000E+00, 0.000000E+00])

#  Reaction 16
reaction( "HO2 + OH <=> H2O + O2", [7.000000E+12, 0.000000E+00, -1.092960E+03],
        options = 'duplicate')

#  Reaction 17
reaction( "HO2 + OH <=> H2O + O2", [4.500000E+14, 0.000000E+00, 1.092960E+04],
        options = 'duplicate')

#  Reaction 18
reaction( "2 HO2 <=> H2O2 + O2", [1.000000E+14, 0.000000E+00, 1.104088E+04],
        options = 'duplicate')

#  Reaction 19
reaction( "2 HO2 <=> H2O2 + O2", [1.900000E+11, 0.000000E+00, -1.408925E+03],
        options = 'duplicate')

#  Reaction 20
falloff_reaction( "H + O2 (+M) <=> HO2 (+M)",
        kf = [4.650000E+12, 4.400000E-01, 0.000000E+00],
        kf0   = [1.737000E+19, -1.230000E+00, 0.000000E+00],
        efficiencies = "H2:1.3  H2O:10.0",
        falloff = Troe(A = 0.67, T3 = 1e-30, T1 = 1.0000000000000002e+30, T2 = 1e+30)       )

#  Reaction 21
three_body_reaction( "O + OH + M <=> HO2 + M",  [1.000000E+16, 0.000000E+00, 0.000000E+00]) 

#  Reaction 22
reaction( "H + NH2 <=> H2 + NH", [4.000000E+13, 0.000000E+00, 3.650000E+03])

#  Reaction 23
reaction( "NH2 + O <=> NH + OH", [6.800000E+12, 0.000000E+00, 0.000000E+00])

#  Reaction 24
reaction( "NH2 + OH <=> H2O + NH", [4.000000E+06, 2.000000E+00, 1.000000E+03])

#  Reaction 25
reaction( "N + NH2 <=> 2 H + N2", [7.000000E+13, 0.000000E+00, 0.000000E+00])

#  Reaction 26
reaction( "NH2 + NO <=> NNH + OH", [6.200000E+15, -1.150000E+00, 2.518000E+03])

#  Reaction 27
reaction( "H + NH <=> H2 + N", [3.000000E+13, 0.000000E+00, 0.000000E+00])

#  Reaction 28
reaction( "NH + O <=> H + NO", [9.200000E+13, 0.000000E+00, 0.000000E+00])

#  Reaction 29
reaction( "NH + OH <=> H2O + N", [5.000000E+11, 5.000000E-01, 2.000000E+03])

#  Reaction 30
reaction( "NH + OH <=> H2 + NO", [2.000000E+13, 0.000000E+00, 0.000000E+00])

#  Reaction 31
reaction( "NH + O2 <=> NO + OH", [1.300000E+06, 1.500000E+00, 1.000000E+02])

#  Reaction 32
reaction( "NH + NO <=> N2 + OH", [2.200000E+13, -2.300000E-01, 0.000000E+00])

#  Reaction 33
reaction( "N + OH <=> H + NO", [3.800000E+13, 0.000000E+00, 0.000000E+00])

#  Reaction 34
reaction( "N + O2 <=> NO + O", [6.400000E+09, 1.000000E+00, 6.280000E+03])

#  Reaction 35
reaction( "N + NO <=> N2 + O", [3.300000E+12, 3.000000E-01, 0.000000E+00])

#  Reaction 36
reaction( "NNH <=> H + N2", [1.000000E+07, 0.000000E+00, 0.000000E+00])

#  Reaction 37
reaction( "H + NNH <=> H2 + N2", [1.000000E+14, 0.000000E+00, 0.000000E+00])

#  Reaction 38
reaction( "NNH + O <=> H + N2O", [1.900000E+14, -2.740000E-01, -2.200000E+01])

#  Reaction 39
reaction( "NNH + O <=> NH + NO", [5.200000E+11, 3.880000E-01, -4.090000E+02])

#  Reaction 40
reaction( "NNH + OH <=> H2O + N2", [5.000000E+13, 0.000000E+00, 0.000000E+00])

#  Reaction 41
reaction( "NNH + O2 <=> HO2 + N2", [5.600000E+14, -3.850000E-01, -1.300000E+01])

#  Reaction 42
falloff_reaction( "N2O (+M) <=> N2 + O (+M)",
        kf = [1.300000E+12, 0.000000E+00, 6.257000E+04],
        kf0   = [4.000000E+14, 0.000000E+00, 5.660000E+04],
        efficiencies = "H2O:12.0  N2:1.7  O2:1.4")

#  Reaction 43
reaction( "H + N2O <=> N2 + OH", [3.300000E+10, 0.000000E+00, 4.729000E+03],
        options = 'duplicate')

#  Reaction 44
reaction( "H + N2O <=> N2 + OH", [4.400000E+14, 0.000000E+00, 1.925400E+04],
        options = 'duplicate')

#  Reaction 45
reaction( "NH + NO <=> H + N2O", [3.190000E+14, -4.550000E-01, 0.000000E+00])

#  Reaction 46
reaction( "N2O + O <=> 2 NO", [2.900000E+13, 0.000000E+00, 2.315000E+04])

#  Reaction 47
reaction( "N2O + O <=> N2 + O2", [1.400000E+12, 0.000000E+00, 1.080000E+04])
