"""
=== Sub-mechanism with Carbon number <= 0 ===

++++++++++++++++++++++++++++++++++++++++++++++++++++++++++++++++++++++++++++++++++++++++++++++++++++++++++++++++++++++++++++++++++++++++++++++++++++++++++++++
\START_SPECIES_LIST
++++++++++++++++++++++++++++++++++++++++++++++++++++++++++++++++++++++++++++++++++++++++++++++++++++++++++++++++++++++++++++++++++++++++++++++++++++++++++++++
++++++++++++++++++++++++++++++++++++++++++++++++++++++++++++++++++++++++++++++++++++++++++++++++++++++++++++++++++++++++++++++++++++++++++++++++++++++++++++++
\END_SPECIES_LIST
\END_SPECIES_LIST
\START_KINETICS_INPUT
"""

units(length='cm', time='s', quantity='mol', act_energy='cal/mol')

ideal_gas(name='gas',
          elements="H N O Ar He",
          species="""AR     N2     HE     H2     H      O2     O      H2O
                     OH     OHV    H2O2   HO2    N      NO     NOV    NO2
                     N2O    NH3    HNO    HON    HONO   H2NO   NNH    NH2
                     NH     HNOH   NO3    HONO2  HNO3   N2H2   N2H3   N2H4
                     H2NN   NH2OH  HNO2   N2O4   N2O3""",
          reactions='all',
          transport='Mix',
          initial_state=state(temperature=300.0, pressure=OneAtm))

#-------------------------------------------------------------------------------
# Species data
#-------------------------------------------------------------------------------

species(name='AR',
        atoms='Ar:1',
        thermo=(NASA([200.00, 1000.00],
                     [ 2.50000000E+00,  0.00000000E+00,  0.00000000E+00,
                       0.00000000E+00,  0.00000000E+00, -7.45375000E+02,
                       4.37967491E+00]),
                NASA([1000.00, 6000.00],
                     [ 2.50000000E+00,  0.00000000E+00,  0.00000000E+00,
                       0.00000000E+00,  0.00000000E+00, -7.45375000E+02,
                       4.37967491E+00])),
        transport=gas_transport(geom='atom',
                                diam=3.33,
                                well_depth=136.5),
        note='G-5-97')

species(name='N2',
        atoms='N:2',
        thermo=(NASA([200.00, 1000.00],
                     [ 3.53100528E+00, -1.23660988E-04, -5.02999433E-07,
                       2.43530612E-09, -1.40881235E-12, -1.04697628E+03,
                       2.96747038E+00]),
                NASA([1000.00, 6000.00],
                     [ 2.95257637E+00,  1.39690040E-03, -4.92631603E-07,
                       7.86010195E-11, -4.60755204E-15, -9.23948688E+02,
                       5.87188762E+00])),
        transport=gas_transport(geom='linear',
                                diam=3.621,
                                well_depth=97.53,
                                polar=1.76,
                                rot_relax=4.0),
        note='G-8-02')

species(name='HE',
        atoms='He:1',
        thermo=(NASA([200.00, 1000.00],
                     [ 2.50000000E+00,  0.00000000E+00,  0.00000000E+00,
                       0.00000000E+00,  0.00000000E+00, -7.45375000E+02,
                       9.28723974E-01]),
                NASA([1000.00, 6000.00],
                     [ 2.50000000E+00,  0.00000000E+00,  0.00000000E+00,
                       0.00000000E+00,  0.00000000E+00, -7.45375000E+02,
                       9.28723974E-01])),
        transport=gas_transport(geom='atom',
                                diam=2.576,
                                well_depth=10.2),
        note='G-5-97')

species(name='H2',
        atoms='H:2',
        thermo=(NASA([200.00, 1000.00],
                     [ 2.34433112E+00,  7.98052075E-03, -1.94781510E-05,
                       2.01572094E-08, -7.37611761E-12, -9.17935173E+02,
                       6.83010238E-01]),
                NASA([1000.00, 6000.00],
                     [ 2.93286575E+00,  8.26608026E-04, -1.46402364E-07,
                       1.54100414E-11, -6.88804800E-16, -8.13065581E+02,
                      -1.02432865E+00])),
        transport=gas_transport(geom='linear',
                                diam=2.92,
                                well_depth=38.0,
                                polar=0.79,
                                rot_relax=280.0),
        note='TPIS78')

species(name='H',
        atoms='H:1',
        thermo=(NASA([200.00, 1000.00],
                     [ 2.50000000E+00,  0.00000000E+00,  0.00000000E+00,
                       0.00000000E+00,  0.00000000E+00,  2.54736600E+04,
                      -4.46682850E-01]),
                NASA([1000.00, 6000.00],
                     [ 2.50000000E+00,  0.00000000E+00,  0.00000000E+00,
                       0.00000000E+00,  0.00000000E+00,  2.54736600E+04,
                      -4.46682850E-01])),
        transport=gas_transport(geom='atom',
                                diam=2.05,
                                well_depth=145.0),
        note='L-6-94')

species(name='O2',
        atoms='O:2',
        thermo=(NASA([200.00, 1000.00],
                     [ 3.78245636E+00, -2.99673416E-03,  9.84730201E-06,
                      -9.68129509E-09,  3.24372837E-12, -1.06394356E+03,
                       3.65767573E+00]),
                NASA([1000.00, 6000.00],
                     [ 3.66096065E+00,  6.56365811E-04, -1.41149627E-07,
                       2.05797935E-11, -1.29913436E-15, -1.21597718E+03,
                       3.41536279E+00])),
        transport=gas_transport(geom='linear',
                                diam=3.458,
                                well_depth=107.4,
                                polar=1.6,
                                rot_relax=3.8),
        note='RUS-89')

species(name='O',
        atoms='O:1',
        thermo=(NASA([200.00, 1000.00],
                     [ 3.16826710E+00, -3.27931884E-03,  6.64306396E-06,
                      -6.12806624E-09,  2.11265971E-12,  2.91222592E+04,
                       2.05193346E+00]),
                NASA([1000.00, 6000.00],
                     [ 2.54363697E+00, -2.73162486E-05, -4.19029520E-09,
                       4.95481845E-12, -4.79553694E-16,  2.92260120E+04,
                       4.92229457E+00])),
        transport=gas_transport(geom='atom',
                                diam=2.75,
                                well_depth=80.0),
        note='L-1-90')

species(name='H2O',
        atoms='H:2 O:1',
        thermo=(NASA([200.00, 1000.00],
                     [ 4.19863520E+00, -2.03640170E-03,  6.52034160E-06,
                      -5.48792690E-09,  1.77196800E-12, -3.02937260E+04,
                      -8.49009010E-01]),
                NASA([1000.00, 6000.00],
                     [ 2.67703890E+00,  2.97318160E-03, -7.73768890E-07,
                       9.44335140E-11, -4.26899910E-15, -2.98858940E+04,
                       6.88255000E+00])),
        transport=gas_transport(geom='nonlinear',
                                diam=2.605,
                                well_depth=572.4,
                                dipole=1.844,
                                rot_relax=4.0),
        note='L-5-89')

species(name='OH',
        atoms='H:1 O:1',
        thermo=(NASA([200.00, 1000.00],
                     [ 3.99198424E+00, -2.40106655E-03,  4.61664033E-06,
                      -3.87916306E-09,  1.36319502E-12,  3.36889836E+03,
                      -1.03998477E-01]),
                NASA([1000.00, 6000.00],
                     [ 2.83853033E+00,  1.10741289E-03, -2.94000209E-07,
                       4.20698729E-11, -2.42289890E-15,  3.69780808E+03,
                       5.84494652E+00])),
        transport=gas_transport(geom='linear',
                                diam=2.75,
                                well_depth=80.0),
        note='IU3-03')

species(name='OHV',
        atoms='H:1 O:1',
        thermo=(NASA([300.00, 1000.00],
                     [ 3.63726600E+00,  1.85091000E-04, -1.67616460E-06,
                       2.38720200E-09, -8.43144200E-13,  5.00213000E+04,
                       1.35886050E+00]),
                NASA([1000.00, 5000.00],
                     [ 2.88273000E+00,  1.01397430E-03, -2.27687700E-07,
                       2.17468300E-11, -5.12630500E-16,  5.02650000E+04,
                       5.59571200E+00])),
        transport=gas_transport(geom='linear',
                                diam=2.75,
                                well_depth=80.0),
        note='121286')

species(name='H2O2',
        atoms='H:2 O:2',
        thermo=(NASA([200.00, 1000.00],
                     [ 4.31515149E+00, -8.47390622E-04,  1.76404323E-05,
                      -2.26762944E-08,  9.08950158E-12, -1.77067437E+04,
                       3.27373319E+00]),
                NASA([1000.00, 6000.00],
                     [ 4.57977305E+00,  4.05326003E-03, -1.29844730E-06,
                       1.98211400E-10, -1.13968792E-14, -1.80071775E+04,
                       6.64970694E-01])),
        transport=gas_transport(geom='nonlinear',
                                diam=3.458,
                                well_depth=107.4,
                                rot_relax=3.8),
        note='T-8-03')

species(name='HO2',
        atoms='H:1 O:2',
        thermo=(NASA([200.00, 1000.00],
                     [ 4.30179807E+00, -4.74912097E-03,  2.11582905E-05,
                      -2.42763914E-08,  9.29225225E-12,  2.64018485E+02,
                       3.71666220E+00]),
                NASA([1000.00, 5000.00],
                     [ 4.17228741E+00,  1.88117627E-03, -3.46277286E-07,
                       1.94657549E-11,  1.76256905E-16,  3.10206839E+01,
                       2.95767672E+00])),
        transport=gas_transport(geom='nonlinear',
                                diam=3.458,
                                well_depth=107.4,
                                rot_relax=1.0),
        note='T-1-09')

species(name='N',
        atoms='N:1',
        thermo=(NASA([300.00, 1000.00],
                     [ 2.50307100E+00, -2.18001800E-05,  5.42052900E-08,
                      -5.64756000E-11,  2.09990400E-14,  5.60989000E+04,
                       4.16756600E+00]),
                NASA([1000.00, 5000.00],
                     [ 2.45026800E+00,  1.06614600E-04, -7.46533700E-08,
                       1.87965200E-11, -1.02598400E-15,  5.61160400E+04,
                       4.44875800E+00])),
        transport=gas_transport(geom='atom',
                                diam=3.298,
                                well_depth=71.4),
        note='120186')

species(name='NO',
        atoms='N:1 O:1',
        thermo=(NASA([298.15, 1000.00],
                     [ 4.15036687E+00, -4.08890008E-03,  9.38071726E-06,
                      -7.50908901E-09,  2.11742798E-12,  9.77018679E+03,
                       2.53971032E+00]),
                NASA([1000.00, 3000.00],
                     [ 2.79462839E+00,  2.12260586E-03, -1.11936971E-06,
                       2.79521018E-10, -2.68625363E-14,  1.00019069E+04,
                       8.88322674E+00])),
        transport=gas_transport(geom='linear',
                                diam=3.621,
                                well_depth=97.53,
                                polar=1.76,
                                rot_relax=4.0))

species(name='NOV',
        atoms='N:1 O:1',
        thermo=(NASA([200.00, 1000.00],
                     [ 4.21859896E+00, -4.63988124E-03,  1.10443049E-05,
                      -9.34055507E-09,  2.80554874E-12,  9.84509964E+03,
                       2.28061001E+00]),
                NASA([1000.00, 6000.00],
                     [ 3.26071234E+00,  1.19101135E-03, -4.29122646E-07,
                       6.94481463E-11, -4.03295681E-15,  9.92143132E+03,
                       6.36900518E+00])),
        transport=gas_transport(geom='linear',
                                diam=3.621,
                                well_depth=97.53,
                                polar=1.76,
                                rot_relax=4.0),
        note='mmy')

species(name='NO2',
        atoms='N:1 O:2',
        thermo=(NASA([298.15, 1000.00],
                     [ 3.39100918E+00,  2.62448348E-03,  5.09790306E-06,
                      -7.62120493E-09,  2.79960135E-12,  2.43407845E+03,
                       8.57220275E+00]),
                NASA([1000.00, 3000.00],
                     [ 3.65239279E+00,  4.71632310E-03, -2.74591748E-06,
                       7.45382834E-10, -7.63891108E-14,  2.22493303E+03,
                       6.52683440E+00])),
        transport=gas_transport(geom='nonlinear',
                                diam=3.5,
                                well_depth=200.0,
                                rot_relax=1.0))

species(name='N2O',
        atoms='N:2 O:1',
        thermo=(NASA([298.15, 1000.00],
                     [ 2.49126356E+00,  9.16224976E-03, -8.24847853E-06,
                       3.83289657E-09, -7.19461784E-13,  8.84938621E+03,
                       9.80262335E+00]),
                NASA([1000.00, 3000.00],
                     [ 3.61316907E+00,  5.15970465E-03, -2.97227625E-06,
                       8.00505298E-10, -8.26331952E-14,  8.60075126E+03,
                       4.26880857E+00])),
        transport=gas_transport(geom='linear',
                                diam=3.828,
                                well_depth=232.4,
                                rot_relax=1.0))

species(name='NH3',
        atoms='H:3 N:1',
        thermo=(NASA([298.15, 1000.00],
                     [ 3.26650510E+00,  3.05892867E-03,  5.78755223E-07,
                       9.49077412E-10, -9.02221969E-13, -6.36511405E+03,
                       3.58794921E+00]),
                NASA([1000.00, 3000.00],
                     [ 1.07096958E+00,  8.75466951E-03, -3.33525419E-06,
                       4.72015791E-10, -1.13562571E-14, -5.77168689E+03,
                       1.49517392E+01])),
        transport=gas_transport(geom='nonlinear',
                                diam=2.92,
                                well_depth=481.0,
                                dipole=1.47,
                                rot_relax=10.0))

species(name='HNO',
        atoms='H:1 N:1 O:1',
        thermo=(NASA([298.15, 1000.00],
                     [ 4.51988078E+00, -5.42507623E-03,  1.70239636E-05,
                      -1.48708172E-08,  4.44763498E-12,  1.17637925E+04,
                       1.75618526E+00]),
                NASA([1000.00, 3000.00],
                     [ 2.58819802E+00,  4.87708822E-03, -2.29243315E-06,
                       5.82214028E-10, -5.94811743E-14,  1.20213574E+04,
                       1.04315796E+01])),
        transport=gas_transport(geom='nonlinear',
                                diam=3.492,
                                well_depth=116.7,
                                rot_relax=1.0))

species(name='HON',
        atoms='H:1 N:1 O:1',
        thermo=(NASA([298.15, 1000.00],
                     [ 3.05581786E+00,  4.43591111E-03, -1.22219840E-06,
                      -1.14007451E-09,  6.69025432E-13,  2.46094424E+04,
                       9.08279393E+00]),
                NASA([1000.00, 3000.00],
                     [ 3.71174626E+00,  3.16088951E-03, -1.33270405E-06,
                       2.82287945E-10, -2.37381901E-14,  2.44108221E+04,
                       5.58114551E+00])),
        transport=gas_transport(geom='nonlinear',
                                diam=3.492,
                                well_depth=116.7,
                                rot_relax=1.0))

species(name='HONO',
        atoms='H:1 N:1 O:2',
        thermo=(NASA([298.15, 1000.00],
                     [ 3.49106617E+00,  6.81116875E-03, -1.30943120E-06,
                      -2.34197204E-09,  1.18931535E-12, -1.05722865E+04,
                       8.99803804E+00]),
                NASA([1000.00, 3000.00],
                     [ 4.19966671E+00,  5.94217338E-03, -2.95404834E-06,
                       7.19846187E-10, -6.74909061E-14, -1.08122769E+04,
                       5.08809833E+00])),
        transport=gas_transport(geom='nonlinear',
                                diam=3.828,
                                well_depth=232.4,
                                rot_relax=1.0))

species(name='H2NO',
        atoms='H:2 N:1 O:1',
        thermo=(NASA([298.15, 1000.00],
                     [ 3.93370869E+00,  2.21175605E-03,  5.86220201E-06,
                      -6.72931776E-09,  2.17836171E-12,  6.59507215E+03,
                       4.42022091E+00]),
                NASA([1000.00, 3000.00],
                     [ 3.36485636E+00,  6.13307432E-03, -2.48863886E-06,
                       4.83818467E-10, -3.63995936E-14,  6.62654717E+03,
                       6.75312730E+00])),
        transport=gas_transport(geom='nonlinear',
                                diam=3.492,
                                well_depth=116.7,
                                rot_relax=1.0))

species(name='NNH',
        atoms='H:1 N:2',
        thermo=(NASA([298.15, 1000.00],
                     [ 4.09254871E+00, -2.37173287E-03,  1.15311297E-05,
                      -1.06308423E-08,  3.23937580E-12,  2.91374980E+04,
                       3.93250587E+00]),
                NASA([1000.00, 3000.00],
                     [ 2.90981142E+00,  4.44718211E-03, -1.82919152E-06,
                       3.64004342E-10, -3.13273352E-14,  2.92696472E+04,
                       9.11653812E+00])),
        transport=gas_transport(geom='nonlinear',
                                diam=3.798,
                                well_depth=71.4,
                                rot_relax=1.0))

species(name='NH2',
        atoms='H:2 N:1',
        thermo=(NASA([298.15, 1000.00],
                     [ 3.97883538E+00, -5.13888088E-04,  2.68436156E-06,
                      -9.18832600E-10, -9.82251152E-14,  2.12486673E+04,
                       7.77619668E-01]),
                NASA([1000.00, 3000.00],
                     [ 2.62839610E+00,  3.44379888E-03, -1.08606365E-06,
                       1.50714038E-10, -4.59423280E-15,  2.15909586E+04,
                       7.65372613E+00])),
        transport=gas_transport(geom='nonlinear',
                                diam=2.65,
                                well_depth=80.0,
                                polar=2.26,
                                rot_relax=4.0))

species(name='NH',
        atoms='H:1 N:1',
        thermo=(NASA([298.15, 1000.00],
                     [ 3.44697209E+00,  5.57847818E-04, -2.00289360E-06,
                       2.85952922E-09, -1.12434284E-12,  4.17899268E+04,
                       2.02990852E+00]),
                NASA([1000.00, 3000.00],
                     [ 2.95100955E+00,  9.09994439E-04, -8.35582439E-08,
                      -5.17312027E-11,  1.13981436E-14,  4.19707045E+04,
                       4.83056694E+00])),
        transport=gas_transport(geom='linear',
                                diam=2.65,
                                well_depth=80.0,
                                rot_relax=4.0))

species(name='HNOH',
        atoms='H:2 N:1 O:1',
        thermo=(NASA([298.15, 1000.00],
                     [ 2.95651985E+00,  4.25182310E-03,  8.05096459E-06,
                      -1.06999953E-08,  3.62571809E-12,  1.02709524E+04,
                       9.01260159E+00]),
                NASA([1000.00, 3000.00],
                     [ 1.99860924E+00,  1.09126316E-02, -6.18399709E-06,
                       1.61914516E-09, -1.61358511E-13,  1.03210763E+04,
                       1.29266751E+01])),
        transport=gas_transport(geom='nonlinear',
                                diam=3.492,
                                well_depth=116.7,
                                rot_relax=1.0))

species(name='NO3',
        atoms='N:1 O:3',
        thermo=(NASA([298.15, 1000.00],
                     [ 9.62868451E-01,  3.11764566E-02, -5.69690545E-05,
                       4.36163184E-08, -1.22187289E-11,  8.39199404E+03,
                       1.85143423E+01]),
                NASA([1000.00, 3000.00],
                     [ 8.15905025E+00, -2.66052097E-03,  1.36478734E-06,
                      -3.25159761E-10,  2.97032032E-14,  7.20537019E+03,
                      -1.49400125E+01])),
        transport=gas_transport(geom='nonlinear',
                                diam=3.5,
                                well_depth=300.0,
                                rot_relax=1.0))

species(name='HONO2',
        atoms='H:1 N:1 O:3',
        thermo=(NASA([298.15, 1000.00],
                     [ 1.03437078E+00,  2.44807579E-02, -2.31762285E-05,
                       1.03094550E-08, -1.64107287E-12, -1.75562224E+04,
                       1.98358158E+01]),
                NASA([1000.00, 3000.00],
                     [ 5.28851491E+00,  1.02507554E-02, -6.01108580E-06,
                       1.65260052E-09, -1.73502753E-13, -1.85463799E+04,
                      -1.38461402E+00])),
        transport=gas_transport(geom='nonlinear',
                                diam=3.5,
                                well_depth=300.0,
                                rot_relax=1.0))

species(name='HNO3',
        atoms='H:1 N:1 O:3',
        thermo=(NASA([300.00, 1000.00],
                     [ 1.35318500E+00,  2.22002500E-02, -1.97881200E-05,
                       8.77390800E-09, -1.65838400E-12, -1.73856300E+04,
                       1.85186800E+01]),
                NASA([1000.00, 5000.00],
                     [ 7.00384500E+00,  5.81149300E-03, -2.33378900E-06,
                       4.28881400E-10, -2.95938500E-14, -1.88995200E+04,
                      -1.04786300E+01])),
        transport=gas_transport(geom='nonlinear',
                                diam=3.5,
                                well_depth=300.0,
                                rot_relax=1.0),
        note='121286')

species(name='N2H2',
        atoms='H:2 N:2',
        thermo=(NASA([298.15, 1000.00],
                     [ 4.06590870E+00, -4.34024418E-03,  2.13250316E-05,
                      -1.96839880E-08,  5.96855172E-12,  2.32953530E+04,
                       3.56067162E+00]),
                NASA([1000.00, 3000.00],
                     [ 1.53340891E+00,  9.32034303E-03, -4.46173127E-06,
                       1.03777534E-09, -9.45361252E-14,  2.36253236E+04,
                       1.48958722E+01])),
        transport=gas_transport(geom='nonlinear',
                                diam=3.798,
                                well_depth=71.4,
                                rot_relax=1.0))

species(name='N2H3',
        atoms='H:3 N:2',
        thermo=(NASA([298.15, 1000.00],
                     [ 3.80271862E+00,  5.52764141E-03,  6.84860021E-07,
                      -2.00296493E-09,  6.21445742E-13,  2.57522809E+04,
                       5.58213774E+00]),
                NASA([1000.00, 3000.00],
                     [ 3.20302281E+00,  7.99162955E-03, -3.10892955E-06,
                       5.91433018E-10, -4.34549709E-14,  2.58689598E+04,
                       8.45902214E+00])),
        transport=gas_transport(geom='nonlinear',
                                diam=3.9,
                                well_depth=200.0,
                                rot_relax=1.0))

species(name='N2H4',
        atoms='H:4 N:2',
        thermo=(NASA([298.15, 1000.00],
                     [ 9.42542945E-01,  2.13488271E-02, -1.88705886E-05,
                       1.00963087E-08, -2.30996292E-12,  1.09652651E+04,
                       1.75719609E+01]),
                NASA([1000.00, 3000.00],
                     [ 3.21893892E+00,  1.23204128E-02, -5.44372150E-06,
                       1.22223350E-09, -1.10736520E-13,  1.05061274E+04,
                       6.57037382E+00])),
        transport=gas_transport(geom='nonlinear',
                                diam=4.23,
                                well_depth=205.0,
                                polar=4.26,
                                rot_relax=1.5))

species(name='H2NN',
        atoms='H:2 N:2',
        thermo=(NASA([298.15, 1000.00],
                     [ 3.87707453E+00, -2.65244519E-03,  1.86066175E-05,
                      -1.76694483E-08,  5.38800676E-12,  3.52637434E+04,
                       4.23249694E+00]),
                NASA([1000.00, 3000.00],
                     [ 1.46257631E+00,  1.01013888E-02, -5.16789506E-06,
                       1.27606779E-09, -1.22332550E-13,  3.55918510E+04,
                       1.51070949E+01])),
        transport=gas_transport(geom='nonlinear',
                                diam=3.798,
                                well_depth=71.4,
                                rot_relax=1.0))

species(name='NH2OH',
        atoms='H:3 N:1 O:1',
        thermo=(NASA([200.00, 1000.00],
                     [ 3.21016092E+00,  6.19671676E-03,  1.10594948E-05,
                      -1.96668262E-08,  8.82516590E-12, -6.58148481E+03,
                       7.93293571E+00]),
                NASA([1000.00, 6000.00],
                     [ 3.88112502E+00,  8.15708448E-03, -2.82615576E-06,
                       4.37930933E-10, -2.52724604E-14, -6.86018419E+03,
                       3.79156136E+00])),
        transport=gas_transport(geom='nonlinear',
                                diam=3.492,
                                well_depth=116.7,
                                rot_relax=1.0),
        note='ATcT-A')

species(name='HNO2',
        atoms='H:1 N:1 O:2',
        thermo=(NASA([298.15, 1000.00],
                     [ 2.86816457E+00,  4.08036347E-03,  9.55139253E-06,
                      -1.29604691E-08,  4.57373772E-12, -6.42160346E+03,
                       1.07615202E+01]),
                NASA([1000.00, 3000.00],
                     [ 2.71886798E+00,  9.23249468E-03, -5.00922160E-06,
                       1.30155189E-09, -1.30503734E-13, -6.61949139E+03,
                       1.03430537E+01])),
        transport=gas_transport(geom='nonlinear',
                                diam=3.828,
                                well_depth=232.4,
                                rot_relax=1.0))

species(name='N2O4',
        atoms='N:2 O:4',
        thermo=(NASA([298.15, 1000.00],
                     [ 4.01747657E+00,  2.19402007E-02, -1.28644048E-05,
                      -7.61626136E-10,  2.11358071E-12, -1.11274941E+03,
                       7.52136027E+00]),
                NASA([1000.00, 3000.00],
                     [ 8.07873654E+00,  1.21148668E-02, -7.75596278E-06,
                       2.25245174E-09, -2.44865233E-13, -2.24598670E+03,
                      -1.36767979E+01])),
        transport=gas_transport(geom='nonlinear',
                                diam=5.164,
                                well_depth=202.6,
                                rot_relax=1.0))

species(name='N2O3',
        atoms='N:2 O:3',
        thermo=(NASA([298.15, 1000.00],
                     [ 4.44942395E+00,  1.69956247E-02, -1.30498583E-05,
                       2.95689187E-09,  4.56253878E-13,  8.43402311E+03,
                       6.24144529E+00]),
                NASA([1000.00, 3000.00],
                     [ 7.89162265E+00,  7.26770322E-03, -4.51928602E-06,
                       1.31071704E-09, -1.42420748E-13,  7.54353970E+03,
                      -1.13753920E+01])),
        transport=gas_transport(geom='nonlinear',
                                diam=5.164,
                                well_depth=202.6,
                                rot_relax=1.0))

#-------------------------------------------------------------------------------
# Reaction data
#-------------------------------------------------------------------------------
# ++++++++++++++++++++++++++++++++++++++++++++++++++++++++++++++++++++++++++++++++++++++++++++++++++++++++++++++++++++++++++++++++++++++++++++++++++++++++++++++
# \KINETICS_MODULE: \H2_O2
# \MODCOMMENTS:
# \MODWARNINGS:
# \MODSUBMECHS:
# ++++++++++++++++++++++++++++++++++++++++++++++++++++++++++++++++++++++++++++++++++++++++++++++++++++++++++++++++++++++++++++++++++++++++++++++++++++++++++++++
# ----------------------------------------------------------------------------------------------------------------------------------
# \SUBMECH: \H2
# ----------------------------------------------------------------------------------------------------------------------------------
# ___________________________________________________________________________________________________________
# \REACTIONCLASS:  \UNIMOL                                    \A              \N              \EA
# ___________________________________________________________________________________________________________
# \AUTHOR: AK !\REF: TSANG AND HAMPSON, J. PHYS. CHEM. REF. DATA, 15:1087 (1986) !\COMMENT:
# 3RD BODY COLLIDER EFFICIENCIES

# Reaction 1
three_body_reaction('H2 + M <=> 2 H + M', [4.577000e+19, -1.4, 104400.0],
                    efficiencies='H2:2.5 H2O:12.0 HE:0.83')
# ___________________________________________________________________________________________________________
# \REACTIONCLASS:  \ABSTRACTION                               \A              \N              \EA
# ___________________________________________________________________________________________________________
# \SITE: \UNDEF
# \AUTHOR: AK !\REF:SUTHERLAND ET AL., 21ST SYMPOSIUM, P. 929 (1986) !\COMMENT:

# Reaction 2
reaction('H2 + O <=> H + OH', [5.080000e+04, 2.67, 6292.0])
# \AUTHOR: AK !\REF:LAM ET AL. SUBMITTED IJCK !\COMMENT

# Reaction 3
reaction('H2 + OH <=> H + H2O', [4.380000e+13, 0.0, 6990.0])
# ----------------------------------------------------------------------------------------------------------------------------------
# \ENDSUBMECH: \H2
# ----------------------------------------------------------------------------------------------------------------------------------
# ----------------------------------------------------------------------------------------------------------------------------------
# \SUBMECH: \O2
# \MECHCOMMENTS:
# \MECHWARNINGS: