"""
=== Sub-mechanism with Carbon number <= 0 ===

 Reduced Mechanism based in Okafor et al. Combust. Flame 2018 with updates
"""

units(length='cm', time='s', quantity='mol', act_energy='cal/mol')

ideal_gas(name='gas',
          elements="O H N Ar",
          species="""H2    H     O     O2    OH    H2O   HO2   H2O2  N
                     NH    NH2   NH3   N2H2  NNH   NO    NO2   N2O   HNO
                     N2    N2H3  AR""",
          reactions='all',
          transport='Mix',
          initial_state=state(temperature=300.0, pressure=OneAtm))

#-------------------------------------------------------------------------------
# Species data
#-------------------------------------------------------------------------------

species(name='H2',
        atoms='H:2',
        thermo=(NASA([200.00, 1000.00],
                     [ 2.34430290E+00,  7.98042480E-03, -1.94779170E-05,
                       2.01569670E-08, -7.37602890E-12, -9.17924130E+02,
                       6.83002180E-01]),
                NASA([1000.00, 6000.00],
                     [ 2.93283050E+00,  8.26598020E-04, -1.46400570E-07,
                       1.54098510E-11, -6.88796150E-16, -8.13055820E+02,
                      -1.02431640E+00])),
        transport=gas_transport(geom='linear',
                                diam=2.92,
                                well_depth=38.0,
                                polar=0.79,
                                rot_relax=280.0),
        note='RUS-78')

species(name='H',
        atoms='H:1',
        thermo=(NASA([200.00, 1000.00],
                     [ 2.50000000E+00,  0.00000000E+00,  0.00000000E+00,
                       0.00000000E+00,  0.00000000E+00,  2.54736600E+04,
                      -4.46682850E-01]),
                NASA([1000.00, 6000.00],
                     [ 2.50000000E+00,  0.00000000E+00,  0.00000000E+00,
                       0.00000000E+00,  0.00000000E+00,  2.54736600E+04,
                      -4.46682850E-01])),
        transport=gas_transport(geom='atom',
                                diam=2.05,
                                well_depth=145.0),
        note='L-6-94')

species(name='O',
        atoms='O:1',
        thermo=(NASA([200.00, 1000.00],
                     [ 3.16826710E+00, -3.27931884E-03,  6.64306396E-06,
                      -6.12806624E-09,  2.11265971E-12,  2.91222592E+04,
                       2.05193346E+00]),
                NASA([1000.00, 6000.00],
                     [ 2.54363697E+00, -2.73162486E-05, -4.19029520E-09,
                       4.95481845E-12, -4.79553694E-16,  2.92260120E+04,
                       4.92229457E+00])),
        transport=gas_transport(geom='atom',
                                diam=2.75,
                                well_depth=80.0),
        note='L-1-90')

species(name='O2',
        atoms='O:2',
        thermo=(NASA([200.00, 1000.00],
                     [ 3.78245636E+00, -2.99673415E-03,  9.84730200E-06,
                      -9.68129508E-09,  3.24372836E-12, -1.06394356E+03,
                       3.65767573E+00]),
                NASA([1000.00, 6000.00],
                     [ 3.66096083E+00,  6.56365523E-04, -1.41149485E-07,
                       2.05797658E-11, -1.29913248E-15, -1.21597725E+03,
                       3.41536184E+00])),
        transport=gas_transport(geom='linear',
                                diam=3.458,
                                well_depth=107.4,
                                polar=1.6,
                                rot_relax=3.8),
        note='RUS-89')

species(name='OH',
        atoms='H:1 O:1',
        thermo=(NASA([200.00, 1000.00],
                     [ 3.99198424E+00, -2.40106655E-03,  4.61664033E-06,
                      -3.87916306E-09,  1.36319502E-12,  3.37165248E+03,
                      -1.03814059E-01]),
                NASA([1000.00, 6000.00],
                     [ 2.83853033E+00,  1.10741289E-03, -2.94000209E-07,
                       4.20698729E-11, -2.42289890E-15,  3.70056220E+03,
                       5.84513094E+00])),
        transport=gas_transport(geom='linear',
                                diam=2.75,
                                well_depth=80.0),
        note='IU3-03')

species(name='H2O',
        atoms='H:2 O:1',
        thermo=(NASA([200.00, 1000.00],
                     [ 4.19863520E+00, -2.03640170E-03,  6.52034160E-06,
                      -5.48792690E-09,  1.77196800E-12, -3.02937260E+04,
                      -8.49009010E-01]),
                NASA([1000.00, 6000.00],
                     [ 2.67703890E+00,  2.97318160E-03, -7.73768890E-07,
                       9.44335140E-11, -4.26899910E-15, -2.98858940E+04,
                       6.88255000E+00])),
        transport=gas_transport(geom='nonlinear',
                                diam=2.605,
                                well_depth=572.4,
                                dipole=1.844,
                                rot_relax=4.0),
        note='L-5-89')

species(name='HO2',
        atoms='H:1 O:2',
        thermo=(NASA([200.00, 1000.00],
                     [ 4.30178800E+00, -4.74902010E-03,  2.11579530E-05,
                      -2.42759610E-08,  9.29206700E-12,  2.63190983E+02,
                       3.71587740E+00]),
                NASA([1000.00, 6000.00],
                     [ 4.17226590E+00,  1.88120980E-03, -3.46292970E-07,
                       1.94685160E-11,  1.76091530E-16,  3.02010736E+01,
                       2.95697380E+00])),
        transport=gas_transport(geom='nonlinear',
                                diam=3.458,
                                well_depth=107.4,
                                rot_relax=1.0),
        note='L-5-89')

species(name='H2O2',
        atoms='H:2 O:2',
        thermo=(NASA([200.00, 1000.00],
                     [ 4.31515149E+00, -8.47390622E-04,  1.76404323E-05,
                      -2.26762944E-08,  9.08950158E-12, -1.76843601E+04,
                       3.27373216E+00]),
                NASA([1000.00, 6000.00],
                     [ 4.57977305E+00,  4.05326003E-03, -1.29844730E-06,
                       1.98211400E-10, -1.13968792E-14, -1.79847939E+04,
                       6.64969660E-01])),
        transport=gas_transport(geom='nonlinear',
                                diam=3.458,
                                well_depth=107.4,
                                rot_relax=3.8),
        note='T-8-03')

species(name='N',
        atoms='N:1',
        thermo=(NASA([300.00, 1000.00],
                     [ 2.50307100E+00, -2.18001800E-05,  5.42052900E-08,
                      -5.64756000E-11,  2.09990400E-14,  5.60989000E+04,
                       4.16756600E+00]),
                NASA([1000.00, 5000.00],
                     [ 2.45026800E+00,  1.06614600E-04, -7.46533700E-08,
                       1.87965200E-11, -1.02598400E-15,  5.61160400E+04,
                       4.44875800E+00])),
        transport=gas_transport(geom='atom',
                                diam=3.298,
                                well_depth=71.4),
        note='120186')

species(name='NH',
        atoms='H:1 N:1',
        thermo=(NASA([200.00, 1000.00],
                     [ 3.49290840E+00,  3.11791970E-04, -1.48904840E-06,
                       2.48164420E-09, -1.03569670E-12,  4.18942940E+04,
                       1.84832770E+00]),
                NASA([1000.00, 6000.00],
                     [ 2.78369290E+00,  1.32984290E-03, -4.24780470E-07,
                       7.83485040E-11, -5.50444700E-15,  4.21345140E+04,
                       5.74077980E+00])),
        transport=gas_transport(geom='linear',
                                diam=2.65,
                                well_depth=80.0,
                                rot_relax=4.0))

species(name='NH2',
        atoms='H:2 N:1',
        thermo=(NASA([300.00, 1000.00],
                     [ 3.43249300E+00,  3.29954000E-03, -6.61360000E-06,
                       8.59094700E-09, -3.57204700E-12,  2.17722800E+04,
                       3.09011100E+00]),
                NASA([1000.00, 5000.00],
                     [ 2.96131100E+00,  2.93269900E-03, -9.06360000E-07,
                       1.61725700E-10, -1.20420000E-14,  2.19197700E+04,
                       5.77787800E+00])),
        transport=gas_transport(geom='nonlinear',
                                diam=2.65,
                                well_depth=80.0,
                                polar=2.26,
                                rot_relax=4.0),
        note='121686')

species(name='NH3',
        atoms='H:3 N:1',
        thermo=(NASA([300.00, 1000.00],
                     [ 2.20435200E+00,  1.01147600E-02, -1.46526500E-05,
                       1.44723500E-08, -5.32850900E-12, -6.52548800E+03,
                       8.12713800E+00]),
                NASA([1000.00, 5000.00],
                     [ 2.46190400E+00,  6.05916600E-03, -2.00497700E-06,
                       3.13600300E-10, -1.93831700E-14, -6.49327000E+03,
                       7.47209700E+00])),
        transport=gas_transport(geom='nonlinear',
                                diam=2.92,
                                well_depth=481.0,
                                dipole=1.47,
                                rot_relax=10.0),
        note='121386')

species(name='N2H2',
        atoms='H:2 N:2',
        thermo=(NASA([300.00, 1000.00],
                     [ 1.61799900E+00,  1.30631200E-02, -1.71571200E-05,
                       1.60560800E-08, -6.09363900E-12,  2.46752600E+04,
                       1.37946700E+01]),
                NASA([1000.00, 5000.00],
                     [ 3.37118500E+00,  6.03996800E-03, -2.30385400E-06,
                       4.06278900E-10, -2.71314400E-14,  2.41817200E+04,
                       4.98058500E+00])),
        transport=gas_transport(geom='nonlinear',
                                diam=3.798,
                                well_depth=71.4,
                                rot_relax=1.0),
        note='121286')

species(name='NNH',
        atoms='H:1 N:2',
        thermo=(NASA([250.00, 1000.00],
                     [ 3.50134400E+00,  2.05358700E-03,  7.17041000E-07,
                       4.92134800E-10, -9.67117000E-13,  2.83334700E+04,
                       6.39183700E+00]),
                NASA([1000.00, 4000.00],
                     [ 4.41534200E+00,  1.61438800E-03, -1.63289400E-07,
                      -8.55984600E-11,  1.61479100E-14,  2.78802900E+04,
                       9.04288800E-01])),
        transport=gas_transport(geom='nonlinear',
                                diam=3.798,
                                well_depth=71.4,
                                rot_relax=1.0),
        note='120186')

species(name='NO',
        atoms='N:1 O:1',
        thermo=(NASA([200.00, 1000.00],
                     [ 4.21859896E+00, -4.63988124E-03,  1.10443049E-05,
                      -9.34055507E-09,  2.80554874E-12,  9.81823786E+03,
                       2.28060952E+00]),
                NASA([1000.00, 6000.00],
                     [ 3.26071234E+00,  1.19101135E-03, -4.29122646E-07,
                       6.94481463E-11, -4.03295681E-15,  9.89456954E+03,
                       6.36900469E+00])),
        transport=gas_transport(geom='linear',
                                diam=3.339,
                                well_depth=139.32,
                                dipole=0.2,
                                polar=1.76,
                                rot_relax=4.0),
        note='RUS-89')

species(name='NO2',
        atoms='N:1 O:2',
        thermo=(NASA([200.00, 1000.00],
                     [ 3.94403120E+00, -1.58542900E-03,  1.66578120E-05,
                      -2.04754260E-08,  7.83505640E-12,  2.87409757E+03,
                       6.31199190E+00]),
                NASA([1000.00, 6000.00],
                     [ 4.88475400E+00,  2.17239550E-03, -8.28069090E-07,
                       1.57475100E-10, -1.05108950E-14,  2.29397777E+03,
                      -1.17416951E-01])),
        transport=gas_transport(geom='nonlinear',
                                diam=3.852,
                                well_depth=333.59,
                                dipole=0.4,
                                rot_relax=1.0),
        note='L-7-88')

species(name='N2O',
        atoms='N:2 O:1',
        thermo=(NASA([300.00, 1000.00],
                     [ 2.54305800E+00,  9.49219300E-03, -9.79277500E-06,
                       6.26384500E-09, -1.90182600E-12,  8.76510000E+03,
                       9.51122200E+00]),
                NASA([1000.00, 5000.00],
                     [ 4.71897700E+00,  2.87371400E-03, -1.19749600E-06,
                       2.25055200E-10, -1.57533700E-14,  8.16581100E+03,
                      -1.65725000E+00])),
        transport=gas_transport(geom='linear',
                                diam=3.828,
                                well_depth=232.4,
                                rot_relax=1.0),
        note='121286')

species(name='HNO',
        atoms='H:1 N:1 O:1',
        thermo=(NASA([200.00, 1000.00],
                     [ 4.53525574E+00, -5.68543377E-03,  1.85198540E-05,
                      -1.71881225E-08,  5.55818157E-12,  1.16110981E+04,
                       1.74318356E+00]),
                NASA([1000.00, 6000.00],
                     [ 3.16598124E+00,  2.99958892E-03, -3.94376786E-07,
                      -3.85344089E-11,  7.07602668E-15,  1.17654289E+04,
                       7.64513642E+00])),
        transport=gas_transport(geom='nonlinear',
                                diam=3.43,
                                well_depth=170.0,
                                dipole=1.62,
                                rot_relax=1.0),
        note='ATcT-A')

species(name='N2',
        atoms='N:2',
        thermo=(NASA([200.00, 1000.00],
                     [ 3.53100528E+00, -1.23660988E-04, -5.02999433E-07,
                       2.43530612E-09, -1.40881235E-12, -1.04697628E+03,
                       2.96747038E+00]),
                NASA([1000.00, 6000.00],
                     [ 2.95257637E+00,  1.39690040E-03, -4.92631603E-07,
                       7.86010195E-11, -4.60755204E-15, -9.23948688E+02,
                       5.87188762E+00])),
        transport=gas_transport(geom='linear',
                                diam=3.621,
                                well_depth=97.53,
                                polar=1.76,
                                rot_relax=4.0),
        note='G-8-02')

species(name='N2H3',
        atoms='H:3 N:2',
        thermo=(NASA([300.00, 1000.00],
                     [ 3.17420400E+00,  4.71590700E-03,  1.33486700E-05,
                      -1.91968500E-08,  7.48756400E-12,  1.72727000E+04,
                       7.55722400E+00]),
                NASA([1000.00, 5000.00],
                     [ 4.44184600E+00,  7.21427100E-03, -2.49568400E-06,
                       3.92056500E-10, -2.29895000E-14,  1.66422100E+04,
                      -4.27520500E-01])),
        transport=gas_transport(geom='nonlinear',
                                diam=3.9,
                                well_depth=200.0,
                                rot_relax=1.0),
        note='120186')

species(name='AR',
        atoms='Ar:1',
        thermo=(NASA([200.00, 1000.00],
                     [ 2.50000000E+00,  0.00000000E+00,  0.00000000E+00,
                       0.00000000E+00,  0.00000000E+00, -7.45375000E+02,
                       4.37967490E+00]),
                NASA([1000.00, 6000.00],
                     [ 2.50000000E+00,  0.00000000E+00,  0.00000000E+00,
                       0.00000000E+00,  0.00000000E+00, -7.45375000E+02,
                       4.37967490E+00])),
        transport=gas_transport(geom='atom',
                                diam=3.33,
                                well_depth=136.5),
        note='L-6-88')

#-------------------------------------------------------------------------------
# Reaction data
#-------------------------------------------------------------------------------
# GRI Mech 3.0

# Reaction 1
reaction('O + H2 <=> H + OH', [3.870000e+04, 2.7, 6260.0])
#  reference:
#  Marinov, N. M., Pitz, W. J., Westbrook, C. K., Vincitore, A. M.,
#  Castaldi, M. J., Senkan, S. M. "Aromatic and Polycyclic Aromatic
#  Hydrocarbon Formation in a Laminar Premixed n-Butane Flame"
#  Combustion and Flame 114 192-213 (1998).
#  UCRL-WEB-204236
#  Review and release date: May 19, 2004.
# GRI Mech 3.0

# Reaction 2
reaction('O + HO2 <=> OH + O2', [2.000000e+13, 0.0, 0.0])
# GRI Mech 3.0

# Reaction 3
three_body_reaction('H + O2 + M <=> HO2 + M', [2.800000e+18, -0.86, 0.0],
                    efficiencies='AR:0.0 H2O:0.0 N2:0.0 O2:0.0')
# GRI Mech 3.0

# Reaction 4
reaction('H + 2 O2 <=> HO2 + O2', [2.080000e+19, -1.24, 0.0])
# GRI Mech 3.0

# Reaction 5
reaction('H + O2 + H2O <=> HO2 + H2O', [1.126000e+19, -0.76, 0.0])
# GRI Mech 3.0

# Reaction 6
reaction('H + O2 + N2 <=> HO2 + N2', [2.600000e+19, -1.24, 0.0])
# GRI Mech 3.0

# Reaction 7
reaction('H + O2 + AR <=> HO2 + AR', [7.000000e+17, -0.8, 0.0])
# Hong et al.

# Reaction 8
reaction('H + O2 <=> O + OH', [1.040000e+14, 0.0, 15286.0])
# GRI Mech 3.0

# Reaction 9
three_body_reaction('H + OH + M <=> H2O + M', [2.200000e+22, -2.0, 0.0],
                    efficiencies='AR:0.38 H2:0.73 H2O:3.65')
# GRI Mech 3.0

# Reaction 10
reaction('H + HO2 <=> O2 + H2', [4.480000e+13, 0.0, 1068.0])
# GRI Mech 3.0

# Reaction 11
reaction('H + HO2 <=> 2 OH', [8.400000e+13, 0.0, 635.0])
# GRI Mech 3.0

# Reaction 12
reaction('OH + H2 <=> H + H2O', [2.160000e+08, 1.51, 3430.0])
# GRI Mech 3.0

# Reaction 13
falloff_reaction('2 OH (+ M) <=> H2O2 (+ M)',
                 kf=[7.400000e+13, -0.37, 0.0],
                 kf0=[2.300000e+18, -0.9, -1700.0],
                 efficiencies='AR:0.7 H2:2.0 H2O:6.0',
                 falloff=Troe(A=0.7346, T3=94.0, T1=1756.0, T2=5182.0))
# GRI Mech 3.0

# Reaction 14
reaction('2 OH <=> O + H2O', [3.570000e+04, 2.4, -2110.0])
# hong pci 2013

# Reaction 15
reaction('OH + HO2 <=> H2O + O2', [7.000000e+12, 0.0, -1092.96],
         options='duplicate')
# hong pci 2013

# Reaction 16
reaction('OH + HO2 <=> H2O + O2', [4.500000e+14, 0.0, 10929.6],
         options='duplicate')
# GRI Mech 3.0

# Reaction 17
reaction('OH + H2O2 <=> HO2 + H2O', [1.700000e+18, 0.0, 29410.0])
# GRI Mech 3.0

# Reaction 18
reaction('2 HO2 <=> O2 + H2O2', [1.300000e+11, 0.0, -1630.0],
         options='duplicate')
# GRI Mech 3.0

# Reaction 19
reaction('2 HO2 <=> O2 + H2O2', [4.200000e+14, 0.0, 12000.0],
         options='duplicate')
# GRI Mech 3.0

# Reaction 20
reaction('N + NO <=> N2 + O', [2.700000e+13, 0.0, 355.0])
# GRI Mech 3.0

# Reaction 21
reaction('N + O2 <=> NO + O', [9.000000e+09, 1.0, 6500.0])
# GRI Mech 3.0

# Reaction 22
reaction('N + OH <=> NO + H', [3.360000e+13, 0.0, 385.0])
# GRI Mech 3.0

# Reaction 23
reaction('N2O + O <=> N2 + O2', [1.400000e+12, 0.0, 10810.0])
# GRI Mech 3.0

# Reaction 24
reaction('N2O + H <=> N2 + OH', [3.870000e+14, 0.0, 18880.0])
# GRI Mech 3.0

# Reaction 25
reaction('N2O + OH <=> N2 + HO2', [2.000000e+12, 0.0, 21060.0])
# GRI Mech 3.0

# Reaction 26
falloff_reaction('N2O (+ M) <=> N2 + O (+ M)',
                 kf=[7.910000e+10, 0.0, 56020.0],
                 kf0=[6.370000e+14, 0.0, 56640.0],
                 efficiencies='AR:0.625 H2:2.0 H2O:6.0')
# GRI Mech 3.0

# Reaction 27
reaction('HO2 + NO <=> NO2 + OH', [2.110000e+12, 0.0, -480.0])
# GRI Mech 3.0

# Reaction 28
three_body_reaction('NO + O + M <=> NO2 + M', [1.060000e+20, -1.41, 0.0],
                    efficiencies='AR:0.7 H2:2.0 H2O:6.0')
# GRI Mech 3.0

# Reaction 29
reaction('NO2 + O <=> NO + O2', [3.900000e+12, 0.0, -240.0])
# GRI Mech 3.0

# Reaction 30
reaction('NO2 + H <=> NO + OH', [1.320000e+14, 0.0, 360.0])
#  SKR/GLA04 DAV/HAN90,rv/Tian Mech

# Reaction 31
reaction('NH + H <=> N + H2', [3.000000e+13, 0.0, 0.0])
#  SKR/GLA04 CEC94/Tian Mech

# Reaction 32
reaction('NH + O <=> NO + H', [9.200000e+13, 0.0, 0.0])
#  SKR/GLA04 JAM est/Tian Mech

# Reaction 33
reaction('NH + OH <=> HNO + H', [2.000000e+13, 0.0, 0.0])
#  SKR/GLA04 JAM est/Tian Mech

# Reaction 34
reaction('NH + OH <=> N + H2O', [5.000000e+11, 0.5, 2000.0])
#  SKR/GLA04 MIL/MEL92/Tian Mech

# Reaction 35
reaction('NH + O2 <=> HNO + O', [4.600000e+05, 2.0, 6500.0])
#  SKR/GLA04 MIL/MEL92/Tian Mech

# Reaction 36
reaction('NH + O2 <=> NO + OH', [1.300000e+06, 1.5, 100.0])
#  Klippenstein et al

# Reaction 37
reaction('NH + NO <=> N2O + H', [1.800000e+14, -0.351, -244.0])
#  SKR/GLA04 MIL/MEL92/Tian Mech

# Reaction 38
reaction('NH + NO <=> N2 + OH', [2.200000e+13, -0.23, 0.0])
#  SKR/GLA04 LIN/PAG95/Tian Mech

# Reaction 39
reaction('NH2 + H <=> NH + H2', [7.200000e+05, 2.32, 799.0])
#            INO/WAS99,DRA/WAG84,ADA/PHI94/Tian Mech

# Reaction 40
reaction('NH2 + O <=> HNO + H', [6.600000e+13, 0.0, 0.0])
#  SKR/GLA04 JAM est/Tian Mech

# Reaction 41
reaction('NH2 + OH <=> NH + H2O', [4.000000e+06, 2.0, 1000.0])
#  SKR/GLA04 DEA/BOZ00/Tian Mech

# Reaction 42
reaction('NH2 + HO2 <=> NH3 + O2', [9.200000e+05, 1.94, -1152.0])
#  SKR/GLA04 DAV/HAN90/Tian Mech

# Reaction 43
reaction('2 NH2 <=> NH3 + NH', [5.000000e+13, 0.0, 10000.0])
#  SKR/GLA04 JAM est/Tian Mech

# Reaction 44
reaction('NH2 + NH <=> N2H2 + H', [5.000000e+13, 0.0, 0.0])
#  SKR/GLA04 WHY/PHI83/Tian Mech

# Reaction 45
reaction('NH2 + N <=> N2 + 2 H', [7.000000e+13, 0.0, 0.0])
#  SKR/GLA04 MIL/GLA99/Tian Mech

# Reaction 46
reaction('NH2 + NO <=> N2 + H2O', [2.800000e+20, -2.654, 1258.0])
#  SKR/GLA04 MIL/GLA99/Tian Mech

# Reaction 47
reaction('NH2 + NO <=> NNH + OH', [2.300000e+10, 0.425, -814.0])
#  SKR/GLA04 PAR/LIN97/Tian Mech

# Reaction 48
reaction('NH2 + NO2 <=> N2O + H2O', [1.600000e+16, -1.44, 268.0])
#  SKR/GLA04 MIL/GLA99/Tian Mech

# Reaction 49
reaction('NNH <=> N2 + H', [6.500000e+07, 0.0, 0.0])
#  SKR/GLA04 JAM est/Tian Mech

# Reaction 50
reaction('NNH + O <=> N2O + H', [1.000000e+14, 0.0, 0.0])
#  SKR/GLA04 MIL/MEL92/Tian Mech

# Reaction 51
reaction('NNH + O <=> NH + NO', [5.000000e+13, 0.0, 0.0])
#  SKR/GLA04 MIL/GLA99/Tian Mech

# Reaction 52
reaction('NNH + O2 <=> N2 + HO2', [2.000000e+14, 0.0, 0.0])
#  SKR/GLA04 MIL/GLA99 /Tian Mech

# Reaction 53
reaction('NNH + O2 <=> N2 + H + O2', [5.000000e+13, 0.0, 0.0])
# GRI Mech 3.0

# Reaction 54
three_body_reaction('H + NO + M <=> HNO + M', [4.480000e+19, -1.32, 740.0],
                    efficiencies='AR:0.7 H2:2.0 H2O:6.0')
# GRI Mech 3.0

# Reaction 55
reaction('HNO + H <=> H2 + NO', [9.000000e+11, 0.72, 660.0])
# GRI Mech 3.0

# Reaction 56
reaction('HNO + OH <=> NO + H2O', [1.300000e+07, 1.9, -950.0])
# GRI Mech 3.0

# Reaction 57
reaction('HNO + O2 <=> HO2 + NO', [1.000000e+13, 0.0, 13000.0])
# GRI Mech 3.0

# Reaction 58
reaction('NH3 + H <=> NH2 + H2', [5.400000e+05, 2.4, 9915.0])
# Cardelino et al.

# Reaction 59
three_body_reaction('NH3 + M <=> NH2 + H + M', [6.600000e+17, 0.0, 97300.0])
# GRI Mech 3.0

# Reaction 60
reaction('NH3 + OH <=> NH2 + H2O', [2.000000e+06, 2.04, 566.0])
# GRI Mech 3.0

# Reaction 61
reaction('NH3 + O <=> NH2 + OH', [9.400000e+06, 1.94, 6460.0])
# Nakamura

# Reaction 62
three_body_reaction('N2H3 + M <=> N2H2 + H + M', [2.000000e+16, 0.0, 37000.0])
#  SKR/GLA04 DEA/BOZ00/Tian Mech

# Reaction 63
reaction('N2H3 + H <=> N2H2 + H2', [2.400000e+08, 1.5, -10.0])
#  SKR/GLA04 DEA/BOZ00/Tian Mech

# Reaction 64
reaction('N2H3 + HO2 <=> N2H2 + H2O2', [1.400000e+04, 2.69, -1600.0])
#  SKR/GLA04 LIN/PAG96/Tian Mech

# Reaction 65
reaction('N2H2 + H <=> NNH + H2', [8.500000e+04, 2.63, 230.0])
#  SKR/GLA04 DEA/BOZ00/Tian Mech

# Reaction 66
reaction('N2H2 + O <=> NNH + OH', [3.300000e+08, 1.5, 497.0])
#  SKR/GLA04 LIN/PAG96/Tian Mech

# Reaction 67
reaction('N2H2 + OH <=> NNH + H2O', [5.900000e+01, 3.4, 1360.0])
